2021-05-25 09:51:39,453  INFO Gbl:63 JVM: 11.0.7; Oracle Corporation; mixed mode; 64-bit
2021-05-25 09:51:39,454  INFO Gbl:67 OS: Mac OS X; 10.16; x86_64
2021-05-25 09:51:39,454  INFO Gbl:70 CPU cores: 12
2021-05-25 09:51:39,454  INFO Gbl:71 max. Memory: 4096.0MB (4294967296B)
2021-05-25 09:51:39,454  INFO Gbl:109 MATSim-Build: r92f5a963d96c1378d104c07359ace3469f91ad77 (2019-04-10 11:10:17)
2021-05-25 09:51:39,455  INFO ControlerListenerManagerImpl:107 calling notifyStartup on org.matsim.counts.CountsControlerListener
2021-05-25 09:51:39,455  INFO ControlerListenerManagerImpl:107 calling notifyStartup on org.matsim.analysis.ModeStatsControlerListener
2021-05-25 09:51:39,455 DEBUG NetworkRoutingProvider:75 requesting network routing module with routingMode=car;	mode=car
2021-05-25 09:51:39,455  INFO ControlerListenerManagerImpl:107 calling notifyStartup on org.matsim.analysis.ScoreStatsControlerListener
2021-05-25 09:51:39,456  INFO ControlerListenerManagerImpl:110 all ControlerStartupListeners called.
2021-05-25 09:51:39,456  INFO ControlerUtils:58 config dump before iterations start
2021-05-25 09:51:39,462  INFO ControlerUtils:62 

<?xml version="1.0" encoding="UTF-8"?>
<!DOCTYPE config SYSTEM "http://www.matsim.org/files/dtd/config_v2.dtd">
<config>
	<module name="JDEQSim" >
		<param name="carSize" value="7.5" />
		<param name="endTime" value="undefined" />
		<param name="flowCapacityFactor" value="1.0" />
		<param name="gapTravelSpeed" value="15.0" />
		<param name="minimumInFlowCapacity" value="1800.0" />
		<param name="squeezeTime" value="1800.0" />
		<param name="storageCapacityFactor" value="1.0" />
	</module>
	<module name="TimeAllocationMutator" >
		<!-- Default:true; Defines whether time mutation changes an activity's duration. -->
		<param name="mutationAffectsDuration" value="true" />
		<!-- Default:1800.0; Defines how many seconds a time mutation can maximally shift a time. -->
		<param name="mutationRange" value="1800.0" />
		<!-- false; Use individual settings for each subpopulation. If enabled but no settings are found, regular settings are uses as fallback. -->
		<param name="useIndividualSettingsForSubpopulations" value="false" />
	</module>
	<module name="changeMode" >
		<!-- Defines whether car availability is considered be considered or not. An agent has no car only if it has no license, or never access to a car. Default: true -->
		<param name="ignoreCarAvailability" value="true" />
		<!-- Defines the mode switch behavior. Possible values [fromAllModesToSpecifiedModes, fromSpecifiedModesToSpecifiedModes] Default: fromSpecifiedModesToSpecifiedModes. -->
		<param name="modeSwitchBehavior" value="fromSpecifiedModesToSpecifiedModes" />
		<!-- Defines all the modes available, including chain-based modes, seperated by commas -->
		<param name="modes" value="car,pt" />
	</module>
	<module name="controler" >
		<!-- Sets whether graphs showing some analyses should automatically be generated during the simulation. The generation of graphs usually takes a small amount of time that does not have any weight in big simulations, but add a significant overhead in smaller runs or in test cases where the graphical output is not even requested. -->
		<param name="createGraphs" value="true" />
		<!-- true if at the end of a run, plans, network, config etc should be dumped to a file -->
		<param name="dumpDataAtEnd" value="true" />
		<!-- Default=false. If enabled, the router takes travel times needed for turning moves into account. Cannot be used if the (Fast)AStarLandmarks routing or TravelTimeCalculator.separateModes is enabled. -->
		<param name="enableLinkToLinkRouting" value="false" />
		<!-- Default=xml; Specifies the file format for writing events. Currently supported: xml.
		Multiple values can be specified separated by commas (','). -->
		<param name="eventsFileFormat" value="xml" />
		<!-- Default=0;  -->
		<param name="firstIteration" value="0" />
		<!-- Default=1000;  -->
		<param name="lastIteration" value="0" />
		<!-- Defines which mobility simulation will be used. Currently supported: qsim JDEQSim 
		Depending on the chosen mobsim, you'll have to add additional config modules to configure the corresponding mobsim.
		For 'qsim', add a module 'qsim' to the config. -->
		<param name="mobsim" value="qsim" />
		<param name="outputDirectory" value="./output" />
		<!-- Possible values: failIfDirectoryExists, overwriteExistingFiles, deleteDirectoryIfExists -->
		<param name="overwriteFiles" value="overwriteExistingFiles" />
		<!-- The type of routing (least cost path) algorithm used, may have the values: Dijkstra, FastDijkstra, AStarLandmarks or FastAStarLandmarks -->
		<param name="routingAlgorithmType" value="AStarLandmarks" />
		<!-- An identifier for the current run which is used as prefix for output files and mentioned in output xml files etc. -->
		<param name="runId" value="null" />
		<!-- Comma-separated list of visualizer output file formats. `transims', `googleearth', and `otfvis'. -->
		<param name="snapshotFormat" value="" />
		<!-- iterationNumber % writeEventsInterval == 0 defines in which iterations events are written to a file. `0' disables events writing completely. -->
		<param name="writeEventsInterval" value="10" />
		<!-- iterationNumber % writePlansInterval == 0 defines (hopefully) in which iterations plans are written to a file. `0' disables plans writing completely.  Some plans in early iterations are always written -->
		<param name="writePlansInterval" value="10" />
		<!-- iterationNumber % writeSnapshotsInterval == 0 defines in which iterations snapshots are written to a file. `0' disables snapshots writing completely -->
		<param name="writeSnapshotsInterval" value="1" />
	</module>
	<module name="counts" >
		<!-- Transport modes that will be respected for the counts comparison. 'car' is default, which includes also bussed from the pt simulation module. Use this parameter in combination with 'filterModes' = true! -->
		<param name="analyzedModes" value="car" />
		<!-- Specifies over how many iterations the link volumes should be averaged that are used for the counts comparison. Use 1 or 0 to only use the link volumes of a single iteration. This values cannot be larger than the value specified for writeCountsInterval -->
		<param name="averageCountsOverIterations" value="5" />
		<!-- factor by which to re-scale the simulated values.  necessary when simulation runs with something different from 100%.  needs to be adapted manually -->
		<param name="countsScaleFactor" value="1.0" />
		<!-- distance to distanceFilterCenterNode to include counting stations. The unit of distance is the Euclidean distance implied by the coordinate system -->
		<param name="distanceFilter" value="null" />
		<!-- node id for center node of distance filter -->
		<param name="distanceFilterCenterNode" value="null" />
		<!-- If true, link counts from legs performed on modes not included in the 'analyzedModes' parameter are ignored. -->
		<param name="filterModes" value="false" />
		<!-- The Coordinates Reference System in which the coordinates are expressed in the input file. At import, the coordinates will be converted to the coordinate system defined in "global", and willbe converted back at export. If not specified, no conversion happens. -->
		<param name="inputCRS" value="null" />
		<!-- input file name to counts package -->
		<param name="inputCountsFile" value="null" />
		<!-- possible values: `html', `kml', `txt', `all' -->
		<param name="outputformat" value="txt" />
		<!-- Specifies how often the counts comparison should be calculated and written. -->
		<param name="writeCountsInterval" value="10" />
	</module>
	<module name="facilities" >
		<!-- This defines how facilities should be created. Possible values: none fromFile setInScenario onePerActivityLinkInPlansFile onePerActivityLocationInPlansFile  -->
		<param name="facilitiesSource" value="none" />
		<!-- A prefix to be used for auto-generated IDs. -->
		<param name="idPrefix" value="autogen_" />
		<!-- The Coordinates Reference System in which the coordinates are expressed in the input file. At import, the coordinates will be converted to the coordinate system defined in "global", and willbe converted back at export. If not specified, no conversion happens. -->
		<param name="inputCRS" value="null" />
		<param name="inputFacilitiesFile" value="null" />
		<param name="inputFacilityAttributesFile" value="null" />
	</module>
	<module name="global" >
		<param name="coordinateSystem" value="Atlantis" />
		<param name="insistingOnDeprecatedConfigVersion" value="true" />
		<!-- "global" number of threads.  This number is used, e.g., for replanning, but NOT in the mobsim.  This can typically be set to as many cores as you have available, or possibly even slightly more. -->
		<param name="numberOfThreads" value="2" />
		<param name="randomSeed" value="4711" />
	</module>
	<module name="households" >
		<param name="inputFile" value="null" />
		<param name="inputHouseholdAttributesFile" value="null" />
	</module>
	<module name="linkStats" >
		<!-- Specifies over how many iterations the link volumes should be averaged that are used for the link statistics. Use 1 or 0 to only use the link volumes of a single iteration. This values cannot be larger than the value specified for writeLinkStatsInterval -->
		<param name="averageLinkStatsOverIterations" value="5" />
		<!-- Specifies how often the link stats should be calculated and written. Use 0 to disable the generation of link stats. -->
		<param name="writeLinkStatsInterval" value="10" />
	</module>
	<module name="network" >
		<!-- The Coordinates Reference System in which the coordinates are expressed in the input file. At import, the coordinates will be converted to the coordinate system defined in "global", and willbe converted back at export. If not specified, no conversion happens. -->
		<param name="inputCRS" value="null" />
		<param name="inputChangeEventsFile" value="null" />
		<param name="inputNetworkFile" value="/Users/cptnemo2005/Downloads/RunDOTCOVID_2016_02_Outputs/MATSim/Outputs/output_network.xml.gz" />
		<param name="laneDefinitionsFile" value="null" />
		<param name="timeVariantNetwork" value="false" />
	</module>
	<module name="parallelEventHandling" >
		<!-- Estimated number of events during mobsim run. An optional optimization hint for the framework. -->
		<param name="estimatedNumberOfEvents" value="null" />
		<!-- Number of threads for parallel events handler. _null_ means the framework decides by itself. 0 is currently not possible. -->
		<param name="numberOfThreads" value="null" />
		<!-- If enabled, each event handler is assigned to its own thread. Note that enabling this feature disabled the numberOfThreads option! This feature is still experimental! -->
		<param name="oneThreadPerHandler" value="false" />
		<!-- If enabled, it is ensured that all events that are created during a time step of the mobility simulation are processed before the next time step is simulated. E.g. neccessary when within-day replanning is used. -->
		<param name="synchronizeOnSimSteps" value="true" />
	</module>
	<module name="planCalcScore" >
		<!-- logit model scale parameter. default: 1.  Has name and default value for historical reasons (see Bryan Raney's phd thesis). -->
		<param name="BrainExpBeta" value="1.0" />
		<param name="PathSizeLogitBeta" value="1.0" />
		<!-- fraction of iterations at which MSA score averaging is started. The matsim theory department suggests to use this together with switching off choice set innovation (where a similar switch exists), but it has not been tested yet. -->
		<param name="fractionOfIterationsToStartScoreMSA" value="null" />
		<!-- new_score = (1-learningRate)*old_score + learningRate * score_from_mobsim.  learning rates close to zero emulate score averaging, but slow down initial convergence -->
		<param name="learningRate" value="1.0" />
		<!-- There used to be a plateau between duration=0 and duration=zeroUtilityDuration. This caused durations to evolve to zero once they were below zeroUtilityDuration, causing problems.  Only use this switch if you need to be backwards compatible with some old results.  (changed nov'13) -->
		<param name="usingOldScoringBelowZeroUtilityDuration" value="false" />
		<!-- write a plans file in each iteration directory which contains what each agent actually did, and the score it received. -->
		<param name="writeExperiencedPlans" value="false" />
		<parameterset type="scoringParameters" >
			<param name="earlyDeparture" value="-0.0" />
			<param name="lateArrival" value="-18.0" />
			<param name="marginalUtilityOfMoney" value="1.0" />
			<param name="performing" value="6.0" />
			<param name="subpopulation" value="null" />
			<param name="utilityOfLineSwitch" value="-1.0" />
			<param name="waiting" value="-0.0" />
			<param name="waitingPt" value="-6.0" />
			<parameterset type="activityParams" >
				<param name="activityType" value="dummy" />
				<param name="closingTime" value="undefined" />
				<param name="earliestEndTime" value="undefined" />
				<param name="latestStartTime" value="undefined" />
				<param name="minimalDuration" value="undefined" />
				<param name="openingTime" value="undefined" />
				<param name="priority" value="1.0" />
				<param name="scoringThisActivityAtAll" value="true" />
				<!-- typical duration of activity.  needs to be defined and non-zero.  in sec. -->
				<param name="typicalDuration" value="02:00:00" />
				<!-- method to compute score at typical duration.  Options: | uniform | relative | Use uniform for backwards compatibility (all activities same score; higher proba to drop long acts). -->
				<param name="typicalDurationScoreComputation" value="relative" />
			</parameterset>
			<parameterset type="activityParams" >
				<param name="activityType" value="car interaction" />
				<param name="closingTime" value="undefined" />
				<param name="earliestEndTime" value="undefined" />
				<param name="latestStartTime" value="undefined" />
				<param name="minimalDuration" value="undefined" />
				<param name="openingTime" value="undefined" />
				<param name="priority" value="1.0" />
				<param name="scoringThisActivityAtAll" value="false" />
				<param name="typicalDuration" value="undefined" />
				<param name="typicalDurationScoreComputation" value="relative" />
			</parameterset>
			<parameterset type="activityParams" >
				<param name="activityType" value="pt interaction" />
				<param name="closingTime" value="undefined" />
				<param name="earliestEndTime" value="undefined" />
				<param name="latestStartTime" value="undefined" />
				<param name="minimalDuration" value="undefined" />
				<param name="openingTime" value="undefined" />
				<param name="priority" value="1.0" />
				<param name="scoringThisActivityAtAll" value="false" />
				<param name="typicalDuration" value="undefined" />
				<param name="typicalDurationScoreComputation" value="relative" />
			</parameterset>
			<parameterset type="activityParams" >
				<param name="activityType" value="bike interaction" />
				<param name="closingTime" value="undefined" />
				<param name="earliestEndTime" value="undefined" />
				<param name="latestStartTime" value="undefined" />
				<param name="minimalDuration" value="undefined" />
				<param name="openingTime" value="undefined" />
				<param name="priority" value="1.0" />
				<param name="scoringThisActivityAtAll" value="false" />
				<param name="typicalDuration" value="undefined" />
				<param name="typicalDurationScoreComputation" value="relative" />
			</parameterset>
			<parameterset type="activityParams" >
				<param name="activityType" value="other interaction" />
				<param name="closingTime" value="undefined" />
				<param name="earliestEndTime" value="undefined" />
				<param name="latestStartTime" value="undefined" />
				<param name="minimalDuration" value="undefined" />
				<param name="openingTime" value="undefined" />
				<param name="priority" value="1.0" />
				<param name="scoringThisActivityAtAll" value="false" />
				<param name="typicalDuration" value="undefined" />
				<param name="typicalDurationScoreComputation" value="relative" />
			</parameterset>
			<parameterset type="activityParams" >
				<param name="activityType" value="walk interaction" />
				<param name="closingTime" value="undefined" />
				<param name="earliestEndTime" value="undefined" />
				<param name="latestStartTime" value="undefined" />
				<param name="minimalDuration" value="undefined" />
				<param name="openingTime" value="undefined" />
				<param name="priority" value="1.0" />
				<param name="scoringThisActivityAtAll" value="false" />
				<param name="typicalDuration" value="undefined" />
				<param name="typicalDurationScoreComputation" value="relative" />
			</parameterset>
			<parameterset type="modeParams" >
				<!-- [utils] alternative-specific constant.  Normally per trip, but that is probably buggy for multi-leg trips. -->
				<param name="constant" value="0.0" />
				<!-- [money] daily monetary constant. default=0 to be backwards compatible -->
				<param name="dailyMonetaryConstant" value="0.0" />
				<!-- [utils] daily utility constant. default=0 to be backwards compatible -->
				<param name="dailyUtilityConstant" value="0.0" />
				<!-- [utils/m] utility of traveling (e.g. walking or driving) per m, normally negative.  this is on top of the time (dis)utility. -->
				<param name="marginalUtilityOfDistance_util_m" value="0.0" />
				<!-- [utils/hr] additional marginal utility of traveling.  normally negative.  this comes on top of the opportunity cost of time -->
				<param name="marginalUtilityOfTraveling_util_hr" value="-6.0" />
				<param name="mode" value="car" />
				<!-- [unit_of_money/m] conversion of distance into money. Normally negative. -->
				<param name="monetaryDistanceRate" value="0.0" />
			</parameterset>
			<parameterset type="modeParams" >
				<param name="constant" value="0.0" />
				<param name="dailyMonetaryConstant" value="0.0" />
				<param name="dailyUtilityConstant" value="0.0" />
				<param name="marginalUtilityOfDistance_util_m" value="0.0" />
				<param name="marginalUtilityOfTraveling_util_hr" value="-6.0" />
				<param name="mode" value="pt" />
				<param name="monetaryDistanceRate" value="0.0" />
			</parameterset>
			<parameterset type="modeParams" >
				<param name="constant" value="0.0" />
				<param name="dailyMonetaryConstant" value="0.0" />
				<param name="dailyUtilityConstant" value="0.0" />
				<param name="marginalUtilityOfDistance_util_m" value="0.0" />
				<param name="marginalUtilityOfTraveling_util_hr" value="-6.0" />
				<param name="mode" value="walk" />
				<param name="monetaryDistanceRate" value="0.0" />
			</parameterset>
			<parameterset type="modeParams" >
				<param name="constant" value="0.0" />
				<param name="dailyMonetaryConstant" value="0.0" />
				<param name="dailyUtilityConstant" value="0.0" />
				<param name="marginalUtilityOfDistance_util_m" value="0.0" />
				<param name="marginalUtilityOfTraveling_util_hr" value="-6.0" />
				<param name="mode" value="bike" />
				<param name="monetaryDistanceRate" value="0.0" />
			</parameterset>
			<parameterset type="modeParams" >
				<param name="constant" value="0.0" />
				<param name="dailyMonetaryConstant" value="0.0" />
				<param name="dailyUtilityConstant" value="0.0" />
				<param name="marginalUtilityOfDistance_util_m" value="0.0" />
				<param name="marginalUtilityOfTraveling_util_hr" value="-6.0" />
				<param name="mode" value="ride" />
				<param name="monetaryDistanceRate" value="0.0" />
			</parameterset>
			<parameterset type="modeParams" >
				<param name="constant" value="0.0" />
				<param name="dailyMonetaryConstant" value="0.0" />
				<param name="dailyUtilityConstant" value="0.0" />
				<param name="marginalUtilityOfDistance_util_m" value="0.0" />
				<param name="marginalUtilityOfTraveling_util_hr" value="-6.0" />
				<param name="mode" value="other" />
				<param name="monetaryDistanceRate" value="0.0" />
			</parameterset>
		</parameterset>
	</module>
	<module name="plans" >
		<!-- String: minOfDurationAndEndTime tryEndTimeThenDuration endTimeOnly. Anything besides minOfDurationAndEndTime will internally use a different (simpler) version of the TimeAllocationMutator. -->
		<param name="activityDurationInterpretation" value="tryEndTimeThenDuration" />
		<!-- The Coordinates Reference System in which the coordinates are expressed in the input file. At import, the coordinates will be converted to the coordinate system defined in "global", and willbe converted back at export. If not specified, no conversion happens. -->
		<param name="inputCRS" value="null" />
		<param name="inputPersonAttributesFile" value="null" />
		<param name="inputPlansFile" value="/Users/cptnemo2005/Downloads/RunDOTCOVID_2016_02_Outputs/MATSim/Outputs/output_plans.xml.gz" />
		<!-- Defines how routes are stored in memory. Currently supported: LinkNetworkRoute, CompressedNetworkRoute. -->
		<param name="networkRouteType" value="LinkNetworkRoute" />
		<!-- (not tested) will remove plan attributes that are presumably not used, such as activityStartTime. default=false. Use with Caution! -->
		<param name="removingUnnecessaryPlanAttributes" value="false" />
		<!-- Name of the (Object)Attribute defining the subpopulation to which pertains a Person (as freight, through traffic, etc.). The attribute must be of String type.  Change away from default only in desperate situations. -->
		<param name="subpopulationAttributeName" value="subpopulation" />
	</module>
	<module name="planscalcroute" >
		<!-- All the modes for which the router is supposed to generate network routes (like car) -->
		<param name="networkModes" value="car" />
		<parameterset type="teleportedModeParameters" >
			<param name="beelineDistanceFactor" value="1.3" />
			<param name="mode" value="bike" />
			<!-- Free-speed factor for a teleported mode. Travel time = teleportedModeFreespeedFactor * <freespeed car travel time>. Insert a line like this for every such mode. Please do not set teleportedModeFreespeedFactor as well as teleportedModeSpeed for the same mode, but if you do, +teleportedModeFreespeedFactor wins over teleportedModeSpeed. -->
			<param name="teleportedModeFreespeedFactor" value="null" />
			<!-- Speed for a teleported mode. Travel time = (<beeline distance> * beelineDistanceFactor) / teleportedModeSpeed. Insert a line like this for every such mode. -->
			<param name="teleportedModeSpeed" value="4.166666666666667" />
		</parameterset>
		<parameterset type="teleportedModeParameters" >
			<param name="beelineDistanceFactor" value="1.3" />
			<param name="mode" value="walk" />
			<param name="teleportedModeFreespeedFactor" value="null" />
			<param name="teleportedModeSpeed" value="0.8333333333333333" />
		</parameterset>
		<parameterset type="teleportedModeParameters" >
			<param name="beelineDistanceFactor" value="1.3" />
			<param name="mode" value="access_walk" />
			<param name="teleportedModeFreespeedFactor" value="null" />
			<param name="teleportedModeSpeed" value="0.8333333333333333" />
		</parameterset>
		<parameterset type="teleportedModeParameters" >
			<param name="beelineDistanceFactor" value="1.3" />
			<param name="mode" value="egress_walk" />
			<param name="teleportedModeFreespeedFactor" value="null" />
			<param name="teleportedModeSpeed" value="0.8333333333333333" />
		</parameterset>
		<parameterset type="teleportedModeParameters" >
			<param name="beelineDistanceFactor" value="1.3" />
			<param name="mode" value="undefined" />
			<param name="teleportedModeFreespeedFactor" value="null" />
			<param name="teleportedModeSpeed" value="13.88888888888889" />
		</parameterset>
		<parameterset type="teleportedModeParameters" >
			<param name="beelineDistanceFactor" value="1.3" />
			<param name="mode" value="ride" />
			<param name="teleportedModeFreespeedFactor" value="1.0" />
			<param name="teleportedModeSpeed" value="null" />
		</parameterset>
		<parameterset type="teleportedModeParameters" >
			<param name="beelineDistanceFactor" value="1.3" />
			<param name="mode" value="pt" />
			<param name="teleportedModeFreespeedFactor" value="2.0" />
			<param name="teleportedModeSpeed" value="null" />
		</parameterset>
	</module>
	<module name="ptCounts" >
		<!-- factor by which to re-scale the simulated values.  necessary when simulation runs with something different from 100%.  needs to be adapted manually -->
		<param name="countsScaleFactor" value="1.0" />
		<!-- distance to distanceFilterCenterNode to include counting stations. The unit of distance is the Euclidean distance implied by the coordinate system -->
		<param name="distanceFilter" value="null" />
		<!-- node id for center node of distance filter -->
		<param name="distanceFilterCenterNode" value="null" />
		<!-- input file containing the alighting (getting off) counts for pt -->
		<param name="inputAlightCountsFile" value="null" />
		<!-- input file containing the boarding (getting on) counts for pt -->
		<param name="inputBoardCountsFile" value="null" />
		<!-- input file containing the occupancy counts for pt -->
		<param name="inputOccupancyCountsFile" value="null" />
		<!-- possible values: `html', `kml', `txt', `all' -->
		<param name="outputformat" value="null" />
		<!-- every how many iterations (starting with 0) counts comparisons are generated -->
		<param name="ptCountsInterval" value="10" />
	</module>
	<module name="qsim" >
		<param name="endTime" value="undefined" />
		<param name="flowCapacityFactor" value="1.0" />
		<!-- decides if waiting vehicles enter the network after or before the already driving vehicles were moved. Default: false -->
		<param name="insertingWaitingVehiclesBeforeDrivingVehicles" value="true" />
		<!-- If link dynamics is set as SeepageQ, set to false if all seep modes should perform seepage. Default is true (better option). -->
		<param name="isRestrictingSeepage" value="true" />
		<!-- If link dynamics is set as SeepageQ, set to true if seep mode do not consumes any space on the link. Default is false. -->
		<param name="isSeepModeStorageFree" value="false" />
		<!-- default: FIFO; options: FIFO PassingQ SeepageQ -->
		<param name="linkDynamics" value="FIFO" />
		<!-- The (initial) width of the links of the network. Use positive floating point values. This is used only for visualisation. -->
		<param name="linkWidth" value="30.0" />
		<!-- [comma-separated list] Defines which modes are congested modes. Technically, these are the modes that the departure handler of the netsimengine handles.  Effective cell size, effective lane width, flow capacity factor, and storage capacity factor need to be set with diligence.  Need to be vehicular modes to make sense. -->
		<param name="mainMode" value="car" />
		<!-- Shortens a link in the visualization, i.e. its start and end point are moved into towards the center. Does not affect traffic flow.  -->
		<param name="nodeOffset" value="0.0" />
		<!-- Number of threads used for the QSim.  Note that this setting is independent from the "global" threads setting.  In contrast to earlier versions, the non-parallel special version is no longer there. -->
		<param name="numberOfThreads" value="1" />
		<!-- Boolean. `true': stuck vehicles are removed, aborting the plan; `false': stuck vehicles are forced into the next link. `false' is probably the better choice. -->
		<param name="removeStuckVehicles" value="false" />
		<!-- If link dynamics is set as SeepageQ, set a seep mode. Default is bike. -->
		<param name="seepMode" value="bike" />
		<!-- Possible values: minOfEndtimeAndMobsimFinished, onlyUseEndtime -->
		<param name="simEndtimeInterpretation" value="null" />
		<!-- Options: maxOfStarttimeAndEarliestActivityEnd onlyUseStarttime  -->
		<param name="simStarttimeInterpretation" value="maxOfStarttimeAndEarliestActivityEnd" />
		<!-- snapshotStyle. One of: equiDist queue withHoles withHolesAndShowHoles kinematicWaves  -->
		<param name="snapshotStyle" value="equiDist" />
		<param name="snapshotperiod" value="00:00:00" />
		<param name="startTime" value="undefined" />
		<param name="storageCapacityFactor" value="1.0" />
		<!-- time in seconds.  Time after which the frontmost vehicle on a link is called `stuck' if it does not move. -->
		<param name="stuckTime" value="10.0" />
		<param name="timeStepSize" value="00:00:01" />
		<!-- options: queue withHoles kinematicWaves  -->
		<param name="trafficDynamics" value="queue" />
		<!-- Set this parameter to true if lanes should be used, false if not. -->
		<param name="useLanes" value="false" />
		<!-- If a route does not reference a vehicle, agents will use the vehicle with the same id as their own. -->
		<param name="usePersonIdForMissingVehicleId" value="true" />
		<!-- If false, the qsim accumulates fractional flows up to one flow unit in every time step.  If true, flows are updated only if an agent wants to enter the link or an agent is added to buffer. Default is true. -->
		<param name="usingFastCapacityUpdate" value="true" />
		<!-- if the qsim should use as many runners as there are threads (Christoph's dissertation version) or more of them, together with a thread pool (seems to be faster in some situations, but is not tested). -->
		<param name="usingThreadpool" value="true" />
		<!-- Defines what happens if an agent wants to depart, but the specified vehicle is not available. One of: teleport wait exception  -->
		<param name="vehicleBehavior" value="teleport" />
		<!-- If vehicles should all be the same default vehicle, or come from the vehicles file, or something else.  Possible values:  defaultVehicle modeVehicleTypesFromVehiclesData fromVehiclesData -->
		<param name="vehiclesSource" value="defaultVehicle" />
	</module>
	<module name="strategy" >
		<!-- the external executable will be called with a config file as argument.  This is the pathname to a possible skeleton config, to which additional information will be added.  Can be null. -->
		<param name="ExternalExeConfigTemplate" value="null" />
		<!-- time out value (in seconds) after which matsim will consider the external strategy as failed -->
		<param name="ExternalExeTimeOut" value="3600" />
		<!-- root directory for temporary files generated by the external executable. Provided as a service; I don't think this is used by MATSim. -->
		<param name="ExternalExeTmpFileRootDir" value="null" />
		<!-- fraction of iterations where innovative strategies are switched off.  Something like 0.8 should be good.  E.g. if you run from iteration 400 to iteration 500, innovation is switched off at iteration 480 -->
		<param name="fractionOfIterationsToDisableInnovation" value="Infinity" />
		<!-- maximum number of plans per agent.  ``0'' means ``infinity''.  Currently (2010), ``5'' is a good number -->
		<param name="maxAgentPlanMemorySize" value="5" />
		<!-- strategyName of PlanSelector for plans removal.  Possible defaults: WorstPlanSelector SelectRandom SelectExpBetaForRemoval ChangeExpBetaForRemoval PathSizeLogitSelectorForRemoval . The current default, WorstPlanSelector is not a good choice from a discrete choice theoretical perspective. Alternatives, however, have not been systematically tested. kai, feb'12 -->
		<param name="planSelectorForRemoval" value="WorstPlanSelector" />
	</module>
	<module name="subtourModeChoice" >
		<!-- Only for backwards compatibility.  Defines if only trips from modes list should change mode, or all trips.  Options: fromAllModesToSpecifiedModes fromSpecifiedModesToSpecifiedModes  -->
		<param name="behavior" value="fromSpecifiedModesToSpecifiedModes" />
		<!-- Defines the chain-based modes, seperated by commas -->
		<param name="chainBasedModes" value="car,bike" />
		<!-- Defines whether car availability must be considered or not. A agent has no car only if it has no license, or never access to a car -->
		<param name="considerCarAvailability" value="false" />
		<!-- Defines all the modes available, including chain-based modes, seperated by commas -->
		<param name="modes" value="car,pt,bike,walk" />
	</module>
	<module name="transit" >
		<!-- The Coordinates Reference System in which the coordinates are expressed in the input file. At import, the coordinates will be converted to the coordinate system defined in "global", and willbe converted back at export. If not specified, no conversion happens. -->
		<param name="inputScheduleCRS" value="null" />
		<!-- Optional input file containing additional attributes for transit lines, stored as ObjectAttributes. -->
		<param name="transitLinesAttributesFile" value="null" />
		<!-- Comma-separated list of transportation modes that are handled as transit. Defaults to 'pt'. -->
		<param name="transitModes" value="pt" />
		<!-- Input file containing the transit schedule to be simulated. -->
		<param name="transitScheduleFile" value="/Users/cptnemo2005/Downloads/RunDOTCOVID_2016_02_Outputs/MATSim/Outputs/output_transitSchedule.xml.gz" />
		<!-- Optional input file containing additional attributes for transit stop facilities, stored as ObjectAttributes. -->
		<param name="transitStopsAttributesFile" value="null" />
		<!-- Set this parameter to true if transit should be simulated, false if not. -->
		<param name="useTransit" value="false" />
		<!-- Input file containing the vehicles used by the departures in the transit schedule. -->
		<param name="vehiclesFile" value="/Users/cptnemo2005/Downloads/RunDOTCOVID_2016_02_Outputs/MATSim/Outputs/output_transitVehicles.xml.gz" />
	</module>
	<module name="transitRouter" >
		<!-- additional time the router allocates when a line switch happens. Can be interpreted as a 'safety' time that agents need to safely transfer from one line to another -->
		<param name="additionalTransferTime" value="0.0" />
		<!-- Factor with which direct walk generalized cost is multiplied before it is compared to the pt generalized cost.  Set to a very high value to reduce direct walk results. -->
		<param name="directWalkFactor" value="1.0" />
		<!-- step size to increase searchRadius if no stops are found -->
		<param name="extensionRadius" value="200.0" />
		<!-- maximum beeline distance between stops that agents could transfer to by walking -->
		<param name="maxBeelineWalkConnectionDistance" value="100.0" />
		<!-- the radius in which stop locations are searched, given a start or target coordinate -->
		<param name="searchRadius" value="1000.0" />
	</module>
	<module name="travelTimeCalculator" >
		<!-- (only for backwards compatibility; only used if separateModes==false && + filterModes==true)  Transport modes that will be respected by the travel time collector. 'car' is default which includes also buses from the pt simulation module. -->
		<param name="analyzedModes" value="car" />
		<param name="calculateLinkToLinkTravelTimes" value="false" />
		<param name="calculateLinkTravelTimes" value="true" />
		<!-- (only for backwards compatiblity; only used if separateModes==false)  Only modes included in analyzedModes are included. -->
		<param name="filterModes" value="false" />
		<!-- The lenght (in sec) of the time period that is splited into time bins; an additional time bin is created to aggregate all travel times collected after maxTime -->
		<param name="maxTime" value="108000" />
		<!-- (only for backwards compatibility) If false, link travel times are measured and aggregated over all vehicles using the link. -->
		<param name="separateModes" value="true" />
		<!-- How to deal with congested time bins that have no link entry events. `optimistic' assumes free speed (too optimistic); 'experimental_LastMile' is experimental and probably too pessimistic. -->
		<param name="travelTimeAggregator" value="optimistic" />
		<!-- The size of the time bin (in sec) into which the link travel times are aggregated for the router -->
		<param name="travelTimeBinSize" value="900" />
		<!-- possible values: TravelTimeCalculatorArray TravelTimeCalculatorHashMap  -->
		<param name="travelTimeCalculator" value="TravelTimeCalculatorArray" />
		<!-- How to deal with link entry times at different positions during the time bin. Currently supported: average, linearinterpolation -->
		<param name="travelTimeGetter" value="average" />
	</module>
	<module name="vehicles" >
		<param name="vehiclesFile" value="null" />
	</module>
	<module name="vspExperimental" >
		<!-- (do not use except of you have to) There was a problem with pt interaction scoring.  Some people solved it by overwriting the parameters of the pt interaction activity type.  Doing this now throws an Exception.  If you still insist on doing this, set the following to true. -->
		<param name="isAbleToOverwritePtInteractionParams" value="false" />
		<param name="isGeneratingBoardingDeniedEvent" value="false" />
		<!-- if an approximation of the opportunity cost of time is included into the radius calculation for location choice.`true' will be faster, but it is an approximation.  Default is `true'; `false' is available for backwards compatibility. -->
		<param name="isUsingOpportunityCostOfTimeForLocationChoice" value="true" />
		<param name="logitScaleParamForPlansRemoval" value="1.0" />
		<!-- Options: | ignore | info | warn | abort | .  When violating VSP defaults, this results in nothing, logfile infos, logfile warnings, or aborts.  Members of VSP should use `abort' or talk to kai. -->
		<param name="vspDefaultsCheckingLevel" value="ignore" />
		<!-- if true then writes output_events in output directory.  default is `false'. Will only work when lastIteration is multiple of events writing interval -->
		<param name="writingOutputEvents" value="true" />
	</module>

</config>

2021-05-25 09:51:39,463  INFO ControlerUtils:63 Complete config dump done.
2021-05-25 09:51:39,463  INFO ControlerUtils:64 Checking consistency of config...
2021-05-25 09:51:39,463  WARN ControlerConfigGroup:364 setting overwriting behavior to overwriteExistingFiles
2021-05-25 09:51:39,463  WARN ControlerConfigGroup:365 this is not recommended, as it might result in a directory containing output from several model runs
2021-05-25 09:51:39,463  WARN ControlerConfigGroup:366 prefer the options deleteDirectoryIfExists or failIfDirectoryExists
2021-05-25 09:51:39,463  INFO PlanCalcScoreConfigGroup$ScoringParameterSet:1492 NO OPENING OR CLOSING TIMES DEFINED!

There is no activity type that has an opening *and* closing time (or opening time and late penalty) defined.
This usually means that the activity chains can be shifted by an arbitrary
number of hours without having an effect on the score of the plans, and thus
resulting in wrong results / traffic patterns.
If you are using MATSim without time adaptation, you can ignore this warning.


2021-05-25 09:51:39,464  INFO VspConfigConsistencyCheckerImpl:58 NOT running vsp config consistency check because vsp defaults checking level is set to IGNORE
2021-05-25 09:51:39,464  INFO ControlerUtils:66 Checking consistency of config done.
2021-05-25 09:51:39,464  INFO PrepareForSimImpl:79 Network seems to be multimodal. Create car-only network which is handed over to PersonPrepareForSim.
2021-05-25 09:51:39,464  INFO NetworkImpl:167  node # 1
2021-05-25 09:51:39,464  INFO NetworkImpl:167  node # 4
2021-05-25 09:51:39,464  INFO NetworkImpl:167  node # 16
2021-05-25 09:51:39,464  INFO NetworkImpl:167  node # 64
2021-05-25 09:51:39,464  INFO NetworkImpl:167  node # 256
2021-05-25 09:51:39,464  INFO NetworkImpl:167  node # 1024
2021-05-25 09:51:39,465  INFO NetworkImpl:167  node # 4096
2021-05-25 09:51:39,466  INFO NetworkImpl:167  node # 16384
2021-05-25 09:51:39,468  INFO NetworkImpl:163  link # 1
2021-05-25 09:51:39,468  INFO NetworkImpl:163  link # 4
2021-05-25 09:51:39,468  INFO NetworkImpl:163  link # 16
2021-05-25 09:51:39,469  INFO NetworkImpl:163  link # 64
2021-05-25 09:51:39,469  INFO NetworkImpl:163  link # 256
2021-05-25 09:51:39,470  INFO NetworkImpl:163  link # 1024
2021-05-25 09:51:39,473  INFO NetworkImpl:163  link # 4096
2021-05-25 09:51:39,487  INFO NetworkImpl:163  link # 16384
2021-05-25 09:51:39,603 DEBUG NetworkRoutingProvider:75 requesting network routing module with routingMode=car;	mode=car
2021-05-25 09:51:39,626 DEBUG NetworkRoutingProvider:75 requesting network routing module with routingMode=car;	mode=car
2021-05-25 09:51:39,641  INFO Counter:70 [PersonPrepareForSim] handled person # 1
2021-05-25 09:51:39,641  INFO Counter:70 [PersonPrepareForSim] handled person # 2
2021-05-25 09:51:39,642  INFO Counter:70 [PersonPrepareForSim] handled person # 4
2021-05-25 09:51:39,642  INFO Counter:70 [PersonPrepareForSim] handled person # 8
2021-05-25 09:51:39,643  INFO Counter:70 [PersonPrepareForSim] handled person # 16
2021-05-25 09:51:39,643  INFO Counter:70 [PersonPrepareForSim] handled person # 32
2021-05-25 09:51:39,643  INFO Counter:70 [PersonPrepareForSim] handled person # 64
2021-05-25 09:51:39,644  INFO Counter:70 [PersonPrepareForSim] handled person # 128
2021-05-25 09:51:39,645  INFO Counter:70 [PersonPrepareForSim] handled person # 256
2021-05-25 09:51:39,647  INFO Counter:70 [PersonPrepareForSim] handled person # 512
2021-05-25 09:51:39,648  INFO Counter:76 [PersonPrepareForSim] handled person # 544
2021-05-25 09:51:39,648  INFO Counter:70 [VehiclesImpl] added vehicle # 1
2021-05-25 09:51:39,648  INFO Counter:70 [VehiclesImpl] added vehicle # 2
2021-05-25 09:51:39,648  INFO Counter:70 [VehiclesImpl] added vehicle # 4
2021-05-25 09:51:39,648  INFO Counter:70 [VehiclesImpl] added vehicle # 8
2021-05-25 09:51:39,648  INFO Counter:70 [VehiclesImpl] added vehicle # 16
2021-05-25 09:51:39,648  INFO Counter:70 [VehiclesImpl] added vehicle # 32
2021-05-25 09:51:39,648  INFO Counter:70 [VehiclesImpl] added vehicle # 64
2021-05-25 09:51:39,648  INFO Counter:70 [VehiclesImpl] added vehicle # 128
2021-05-25 09:51:39,649  INFO Counter:70 [VehiclesImpl] added vehicle # 256
2021-05-25 09:51:39,649  INFO Counter:70 [VehiclesImpl] added vehicle # 512
2021-05-25 09:51:39,659  INFO AbstractController:123 ###################################################
2021-05-25 09:51:39,660  INFO AbstractController:124 ### ITERATION 0 BEGINS
2021-05-25 09:51:39,660  INFO OutputDirectoryHierarchy:156 Iteration directory ./output/ITERS/it.0 exists already.
2021-05-25 09:51:39,660  INFO ControlerListenerManagerImpl:145 calling notifyIterationStarts on org.matsim.analysis.LegHistogramListener
2021-05-25 09:51:39,660  INFO ControlerListenerManagerImpl:145 calling notifyIterationStarts on org.matsim.analysis.LinkStatsControlerListener
2021-05-25 09:51:39,660  INFO ControlerListenerManagerImpl:145 calling notifyIterationStarts on org.matsim.core.replanning.ReplanningContextImpl
2021-05-25 09:51:39,660  INFO ControlerListenerManagerImpl:145 calling notifyIterationStarts on org.matsim.core.scoring.ScoringFunctionsForPopulation$1
2021-05-25 09:51:39,671  INFO ControlerListenerManagerImpl:145 calling notifyIterationStarts on org.matsim.core.scoring.ExperiencedPlansServiceImpl$1
2021-05-25 09:51:39,672  INFO ControlerListenerManagerImpl:148 [it.0] all ControlerIterationStartsListeners called.
2021-05-25 09:51:39,672  INFO ControlerListenerManagerImpl:224 calling notifyBeforeMobsim on org.matsim.core.controler.corelisteners.EventsHandlingImpl
2021-05-25 09:51:39,672  INFO EventsManagerImpl:170 resetting Event-Handlers
2021-05-25 09:51:39,672  INFO EventsManagerImpl:177   org.matsim.core.trafficmonitoring.TravelTimeCalculator
2021-05-25 09:51:39,672  INFO EventsManagerImpl:177   org.matsim.core.scoring.EventsToLegsAndActivities
2021-05-25 09:51:39,672  INFO EventsManagerImpl:177   org.matsim.analysis.VolumesAnalyzer
2021-05-25 09:51:39,673  INFO EventsManagerImpl:177   org.matsim.core.events.algorithms.Vehicle2DriverEventHandler
2021-05-25 09:51:39,673  INFO EventsManagerImpl:177   org.matsim.core.scoring.ScoringFunctionsForPopulation
2021-05-25 09:51:39,673  INFO EventsManagerImpl:177   org.matsim.analysis.LegHistogram
2021-05-25 09:51:39,673  INFO EventsManagerImpl:177   org.matsim.analysis.CalcLegTimes
2021-05-25 09:51:39,675  INFO EventsManagerImpl:144 adding Event-Handler: org.matsim.core.events.algorithms.EventWriterXML
2021-05-25 09:51:39,675  INFO EventsManagerImpl:148   org.matsim.core.events.algorithms.EventWriter
2021-05-25 09:51:39,675  INFO EventsManagerImpl:148   org.matsim.core.events.handler.BasicEventHandler
2021-05-25 09:51:39,675  INFO EventsManagerImpl:207     > org.matsim.api.core.v01.events.Event
2021-05-25 09:51:39,675  INFO EventsManagerImpl:156 
2021-05-25 09:51:39,676  INFO EventsManagerImpl:144 adding Event-Handler: org.matsim.core.events.algorithms.EventWriterXML
2021-05-25 09:51:39,676  INFO EventsManagerImpl:148   org.matsim.core.events.algorithms.EventWriter
2021-05-25 09:51:39,676  INFO EventsManagerImpl:148   org.matsim.core.events.handler.BasicEventHandler
2021-05-25 09:51:39,676  INFO EventsManagerImpl:207     > org.matsim.api.core.v01.events.Event
2021-05-25 09:51:39,676  INFO EventsManagerImpl:156 
2021-05-25 09:51:39,676  INFO ControlerListenerManagerImpl:224 calling notifyBeforeMobsim on org.matsim.core.controler.corelisteners.PlansDumpingImpl
2021-05-25 09:51:39,676  INFO PlansDumpingImpl:76 dumping plans...
2021-05-25 09:51:39,683  INFO Counter:70 [PopulationWriter] dumped person # 1
2021-05-25 09:51:39,683  INFO Counter:70 [PopulationWriter] dumped person # 2
2021-05-25 09:51:39,685  INFO Counter:70 [PopulationWriter] dumped person # 4
2021-05-25 09:51:39,689  INFO Counter:70 [PopulationWriter] dumped person # 8
2021-05-25 09:51:39,693  INFO Counter:70 [PopulationWriter] dumped person # 16
2021-05-25 09:51:39,700  INFO Counter:70 [PopulationWriter] dumped person # 32
2021-05-25 09:51:39,710  INFO Counter:70 [PopulationWriter] dumped person # 64
2021-05-25 09:51:39,726  INFO Counter:70 [PopulationWriter] dumped person # 128
2021-05-25 09:51:39,760  INFO Counter:70 [PopulationWriter] dumped person # 256
2021-05-25 09:51:39,841  INFO Counter:70 [PopulationWriter] dumped person # 512
2021-05-25 09:51:39,854  INFO PopulationWriter:139 Population written to: ./output/ITERS/it.0/0.plans.xml.gz
2021-05-25 09:51:39,855  INFO Counter:76 [PopulationWriter] dumped person # 544
2021-05-25 09:51:39,856  INFO PlansDumpingImpl:93 finished plans dump.
2021-05-25 09:51:39,856  INFO ControlerListenerManagerImpl:229 calling notifyBeforeMobsim on org.matsim.core.population.VspPlansCleaner
2021-05-25 09:51:39,857  INFO ControlerListenerManagerImpl:232 [it.0] all ControlerBeforeMobsimListeners called.
2021-05-25 09:51:39,857  INFO PrepareForMobsimImpl:79 Network seems to be multimodal. Create car-only network which is handed over to PersonPrepareForSim.
2021-05-25 09:51:39,857  INFO NetworkImpl:167  node # 1
2021-05-25 09:51:39,857  INFO NetworkImpl:167  node # 4
2021-05-25 09:51:39,858  INFO NetworkImpl:167  node # 16
2021-05-25 09:51:39,858  INFO NetworkImpl:167  node # 64
2021-05-25 09:51:39,858  INFO NetworkImpl:167  node # 256
2021-05-25 09:51:39,858  INFO NetworkImpl:167  node # 1024
2021-05-25 09:51:39,858  INFO NetworkImpl:167  node # 4096
2021-05-25 09:51:39,860  INFO NetworkImpl:167  node # 16384
2021-05-25 09:51:39,863  INFO NetworkImpl:163  link # 1
2021-05-25 09:51:39,863  INFO NetworkImpl:163  link # 4
2021-05-25 09:51:39,863  INFO NetworkImpl:163  link # 16
2021-05-25 09:51:39,863  INFO NetworkImpl:163  link # 64
2021-05-25 09:51:39,864  INFO NetworkImpl:163  link # 256
2021-05-25 09:51:39,864  INFO NetworkImpl:163  link # 1024
2021-05-25 09:51:39,868  INFO NetworkImpl:163  link # 4096
2021-05-25 09:51:39,893  INFO NetworkImpl:163  link # 16384
2021-05-25 09:51:39,972 DEBUG NetworkRoutingProvider:75 requesting network routing module with routingMode=car;	mode=car
2021-05-25 09:51:39,985 DEBUG NetworkRoutingProvider:75 requesting network routing module with routingMode=car;	mode=car
2021-05-25 09:51:39,996  INFO Counter:70 [PersonPrepareForSim] handled person # 1
2021-05-25 09:51:39,996  INFO Counter:70 [PersonPrepareForSim] handled person # 2
2021-05-25 09:51:39,997  INFO Counter:70 [PersonPrepareForSim] handled person # 4
2021-05-25 09:51:39,997  INFO Counter:70 [PersonPrepareForSim] handled person # 8
2021-05-25 09:51:39,997  INFO Counter:70 [PersonPrepareForSim] handled person # 16
2021-05-25 09:51:39,997  INFO Counter:70 [PersonPrepareForSim] handled person # 32
2021-05-25 09:51:39,997  INFO Counter:70 [PersonPrepareForSim] handled person # 64
2021-05-25 09:51:39,998  INFO Counter:70 [PersonPrepareForSim] handled person # 128
2021-05-25 09:51:39,999  INFO Counter:70 [PersonPrepareForSim] handled person # 256
2021-05-25 09:51:40,001  INFO Counter:70 [PersonPrepareForSim] handled person # 512
2021-05-25 09:51:40,001  INFO Counter:76 [PersonPrepareForSim] handled person # 544
2021-05-25 09:51:40,058  INFO MobsimListenerManager:49 calling addQueueSimulationListener
2021-05-25 09:51:40,058  INFO MobsimListenerManager:53   assigned class org.matsim.core.mobsim.framework.listeners.MobsimListener to interface org.matsim.core.mobsim.framework.listeners.MobsimBeforeCleanupListener
2021-05-25 09:51:40,058  INFO MobsimListenerManager:53   assigned class org.matsim.core.mobsim.framework.listeners.MobsimListener to interface org.matsim.vis.snapshotwriters.SnapshotWriterManager
2021-05-25 09:51:40,058  INFO MobsimListenerManager:53   assigned class org.matsim.core.mobsim.framework.listeners.MobsimListener to interface org.matsim.core.mobsim.framework.listeners.MobsimAfterSimStepListener
2021-05-25 09:51:40,058  INFO MobsimListenerManager:53   assigned class org.matsim.core.mobsim.framework.listeners.MobsimListener to interface org.matsim.core.mobsim.framework.listeners.MobsimInitializedListener
2021-05-25 09:51:40,058  INFO MobsimListenerManager:53   assigned class org.matsim.core.mobsim.framework.listeners.MobsimListener to interface org.matsim.core.mobsim.framework.listeners.MobsimListener
2021-05-25 09:51:40,082  WARN QueueWithBuffer:378 Link 100415_22116 too small: enlarge storage capacity from: 38.65466666666667 Vehicles to: 161.06111111111113 Vehicles.  This is not fatal, but modifies the traffic flow dynamics.
2021-05-25 09:51:40,082  WARN QueueWithBuffer:378 Link 10047_22041 too small: enlarge storage capacity from: 26.666666666666668 Vehicles to: 400.0 Vehicles.  This is not fatal, but modifies the traffic flow dynamics.
2021-05-25 09:51:40,084  WARN QueueWithBuffer:378 Link 10144_22071 too small: enlarge storage capacity from: 26.666666666666668 Vehicles to: 400.0 Vehicles.  This is not fatal, but modifies the traffic flow dynamics.
2021-05-25 09:51:40,084  WARN QueueWithBuffer:378 Link 10151_22072 too small: enlarge storage capacity from: 26.666666666666668 Vehicles to: 400.0 Vehicles.  This is not fatal, but modifies the traffic flow dynamics.
2021-05-25 09:51:40,084  WARN QueueWithBuffer:378 Link 10154_16846 too small: enlarge storage capacity from: 21.289333333333335 Vehicles to: 22.810000000000002 Vehicles.  This is not fatal, but modifies the traffic flow dynamics.
2021-05-25 09:51:40,085  WARN QueueWithBuffer:378 Link 10154_16848 too small: enlarge storage capacity from: 2.8506666666666667 Vehicles to: 3.0542857142857134 Vehicles.  This is not fatal, but modifies the traffic flow dynamics.
2021-05-25 09:51:40,085  WARN QueueWithBuffer:378 Link 10154_22716 too small: enlarge storage capacity from: 13.575999999999999 Vehicles to: 203.64 Vehicles.  This is not fatal, but modifies the traffic flow dynamics.
2021-05-25 09:51:40,085  WARN QueueWithBuffer:378 Link 10162_22073 too small: enlarge storage capacity from: 26.666666666666668 Vehicles to: 400.0 Vehicles.  This is not fatal, but modifies the traffic flow dynamics.
2021-05-25 09:51:40,086  WARN QueueWithBuffer:378 Link 102095_22117 too small: enlarge storage capacity from: 45.19866666666667 Vehicles to: 188.32777777777778 Vehicles.  This is not fatal, but modifies the traffic flow dynamics.
2021-05-25 09:51:40,086  WARN QueueWithBuffer:378 Link 10240_22211 too small: enlarge storage capacity from: 17.604 Vehicles to: 264.06 Vehicles.  This is not fatal, but modifies the traffic flow dynamics.
2021-05-25 09:51:40,086  WARN QueueWithBuffer:378 Link 10241_22211 too small: enlarge storage capacity from: 26.666666666666668 Vehicles to: 400.0 Vehicles.  This is not fatal, but modifies the traffic flow dynamics.
2021-05-25 09:51:40,086  WARN QueueWithBuffer:381 Additional warnings of this type are suppressed.
2021-05-25 09:51:40,227  INFO QSimProvider:111 Added MobsimEngine class org.matsim.core.mobsim.qsim.ActivityEngine
2021-05-25 09:51:40,227  INFO QSimProvider:117 Added Activityhandler class org.matsim.core.mobsim.qsim.ActivityEngine
2021-05-25 09:51:40,227  INFO QSimProvider:123 Added DepartureHandler class org.matsim.core.mobsim.qsim.qnetsimengine.VehicularDepartureHandler
2021-05-25 09:51:40,227  INFO QSimProvider:111 Added MobsimEngine class org.matsim.core.mobsim.qsim.qnetsimengine.QNetsimEngine
2021-05-25 09:51:40,227  INFO QSimProvider:111 Added MobsimEngine class org.matsim.core.mobsim.qsim.DefaultTeleportationEngine
2021-05-25 09:51:40,227  INFO QSimProvider:123 Added DepartureHandler class org.matsim.core.mobsim.qsim.DefaultTeleportationEngine
2021-05-25 09:51:40,227  INFO QSimProvider:129 Added AgentSource class org.matsim.core.mobsim.qsim.agents.PopulationAgentSource
2021-05-25 09:51:40,228  INFO MobsimListenerManager:49 calling addQueueSimulationListener
2021-05-25 09:51:40,228  INFO MobsimListenerManager:53   assigned class org.matsim.core.mobsim.framework.listeners.MobsimListener to interface org.matsim.core.mobsim.qsim.messagequeueengine.MessageQueueEngine
2021-05-25 09:51:40,228  INFO MobsimListenerManager:53   assigned class org.matsim.core.mobsim.framework.listeners.MobsimListener to interface org.matsim.core.mobsim.framework.listeners.MobsimListener
2021-05-25 09:51:40,228  INFO MobsimListenerManager:53   assigned class org.matsim.core.mobsim.framework.listeners.MobsimListener to interface org.matsim.core.mobsim.framework.listeners.MobsimBeforeSimStepListener
2021-05-25 09:51:40,228  INFO QSimProvider:135 Added MobsimListener class org.matsim.core.mobsim.qsim.messagequeueengine.MessageQueueEngine
2021-05-25 09:51:40,233 ERROR BasicPlanAgentImpl:159 last activity of person driver agent id non_worker_1132_26-64_14379 has end time < infty; setting it to infty
2021-05-25 09:51:40,233 ERROR BasicPlanAgentImpl:160  This message given only once.
2021-05-25 09:51:40,280  INFO QNetsimEngine:506 Assigned 33540 nodes and 60973 links to QSimEngineRunner #0
2021-05-25 09:51:40,283  INFO EventsManagerImpl:134  event # 1
2021-05-25 09:51:40,284  INFO QNetsimEngine:346 SIMULATION (QNetsimEngine) AT 04:05:04 : #links=0 #nodes=1
2021-05-25 09:51:40,284  INFO QSim:505 SIMULATION (NEW QSim) AT 04:05:04 : #Veh=499 lost=0 simT=0.0s realT=0s; (s/r): 0.0
2021-05-25 09:51:40,284  INFO EventsManagerImpl:134  event # 4
2021-05-25 09:51:40,284  INFO Gbl:58 used RAM: 320339968B = 312832kB = 305MB  free: 149422080B = 142MB  total: 469762048B = 448MB
2021-05-25 09:51:40,330  INFO EventsManagerImpl:134  event # 16
2021-05-25 09:51:40,373  INFO EventsManagerImpl:134  event # 64
2021-05-25 09:51:40,494 ERROR SimStepParallelEventsManagerImpl$ExceptionHandler:420 Thread class org.matsim.core.events.SimStepParallelEventsManagerImpl$ProcessEventsRunnable0 died with exception while handling events.
java.lang.IllegalArgumentException: acttype "o" is not known in utility parameters (module name="planCalcScore" in the config file).
	at org.matsim.core.scoring.functions.CharyparNagelActivityScoring.calcActScore(CharyparNagelActivityScoring.java:87)
	at org.matsim.core.scoring.functions.CharyparNagelActivityScoring.handleActivity(CharyparNagelActivityScoring.java:287)
	at org.matsim.core.scoring.SumScoringFunction.handleActivity(SumScoringFunction.java:76)
	at org.matsim.core.scoring.ScoringFunctionsForPopulation.handleActivity(ScoringFunctionsForPopulation.java:232)
	at org.matsim.core.scoring.EventsToActivities.handleEvent(EventsToActivities.java:87)
	at org.matsim.core.scoring.EventsToLegsAndActivities.handleEvent(EventsToLegsAndActivities.java:50)
	at org.matsim.core.events.EventsManagerImpl.callHandlerFast(EventsManagerImpl.java:303)
	at org.matsim.core.events.EventsManagerImpl.computeEvent(EventsManagerImpl.java:222)
	at org.matsim.core.events.EventsManagerImpl.processEvent(EventsManagerImpl.java:136)
	at org.matsim.core.events.SimStepParallelEventsManagerImpl$ProcessEventsRunnable.run(SimStepParallelEventsManagerImpl.java:330)
	at java.base/java.lang.Thread.run(Thread.java:834)
2021-05-25 09:51:40,534 ERROR AbstractController:208 Mobsim did not complete normally! afterMobsimListeners will be called anyway.
java.lang.RuntimeException: Exception while processing events. Cannot guarantee that all events have been fully processed.
	at org.matsim.core.events.SimStepParallelEventsManagerImpl.finishProcessing(SimStepParallelEventsManagerImpl.java:212)
	at org.matsim.core.mobsim.qsim.QSim.cleanupSim(QSim.java:318)
	at org.matsim.core.mobsim.qsim.QSim.run(QSim.java:244)
	at org.matsim.core.controler.NewControler.runMobSim(NewControler.java:126)
	at org.matsim.core.controler.AbstractController$8.run(AbstractController.java:197)
	at org.matsim.core.controler.AbstractController.iterationStep(AbstractController.java:229)
	at org.matsim.core.controler.AbstractController.mobsim(AbstractController.java:193)
	at org.matsim.core.controler.AbstractController.iteration(AbstractController.java:144)
	at org.matsim.core.controler.AbstractController.doIterations(AbstractController.java:112)
	at org.matsim.core.controler.AbstractController.access$100(AbstractController.java:28)
	at org.matsim.core.controler.AbstractController$1.run(AbstractController.java:80)
	at org.matsim.core.controler.MatsimRuntimeModifications.run(MatsimRuntimeModifications.java:48)
	at org.matsim.core.controler.MatsimRuntimeModifications.run(MatsimRuntimeModifications.java:31)
	at org.matsim.core.controler.AbstractController.run(AbstractController.java:88)
	at org.matsim.core.controler.NewControler.run(NewControler.java:84)
	at org.matsim.core.controler.Controler.run(Controler.java:240)
	at Testing.main(Testing.java:28)
Caused by: java.lang.IllegalArgumentException: acttype "o" is not known in utility parameters (module name="planCalcScore" in the config file).
	at org.matsim.core.scoring.functions.CharyparNagelActivityScoring.calcActScore(CharyparNagelActivityScoring.java:87)
	at org.matsim.core.scoring.functions.CharyparNagelActivityScoring.handleActivity(CharyparNagelActivityScoring.java:287)
	at org.matsim.core.scoring.SumScoringFunction.handleActivity(SumScoringFunction.java:76)
	at org.matsim.core.scoring.ScoringFunctionsForPopulation.handleActivity(ScoringFunctionsForPopulation.java:232)
	at org.matsim.core.scoring.EventsToActivities.handleEvent(EventsToActivities.java:87)
	at org.matsim.core.scoring.EventsToLegsAndActivities.handleEvent(EventsToLegsAndActivities.java:50)
	at org.matsim.core.events.EventsManagerImpl.callHandlerFast(EventsManagerImpl.java:303)
	at org.matsim.core.events.EventsManagerImpl.computeEvent(EventsManagerImpl.java:222)
	at org.matsim.core.events.EventsManagerImpl.processEvent(EventsManagerImpl.java:136)
	at org.matsim.core.events.SimStepParallelEventsManagerImpl$ProcessEventsRunnable.run(SimStepParallelEventsManagerImpl.java:330)
	at java.base/java.lang.Thread.run(Thread.java:834)
2021-05-25 09:51:40,535  INFO AbstractController$9:220 ### ITERATION 0 fires after mobsim event
2021-05-25 09:51:40,535  INFO ControlerListenerManagerImpl:248 calling notifyAfterMobsim on org.matsim.analysis.LegTimesControlerListener
2021-05-25 09:51:40,535  INFO LegTimesControlerListener:50 [0] average trip (probably: leg) duration is: 446 seconds = 00:07:26
2021-05-25 09:51:40,535  INFO ControlerListenerManagerImpl:248 calling notifyAfterMobsim on org.matsim.core.scoring.EventsToActivities$1
2021-05-25 09:51:40,536  WARN CharyparNagelActivityScoring:252 The first and the last activity do not have the same type. 
2021-05-25 09:51:40,536  WARN CharyparNagelActivityScoring:253 Will score the first activity from midnight to its end, and the last activity from its start to midnight.
2021-05-25 09:51:40,536  WARN CharyparNagelActivityScoring:254 Because of the nonlinear function, this is not the same as scoring from start to end.
2021-05-25 09:51:40,536  WARN CharyparNagelActivityScoring:255 first activity: [type=home][coord=null][linkId=7016_7139][startTime=undefined][endTime=04:22:15][duration=undefined][facilityId=null]
2021-05-25 09:51:40,536  WARN CharyparNagelActivityScoring:256 last activity: [type=work][coord=null][linkId=16847_7175][startTime=04:23:29][endTime=undefined][duration=undefined][facilityId=null]
2021-05-25 09:51:40,536  WARN CharyparNagelActivityScoring:257 This may also happen when plans are not completed when the simulation ends.
2021-05-25 09:51:40,536  WARN CharyparNagelActivityScoring:259 Additional warnings of this type are suppressed.
2021-05-25 09:51:40,536 ERROR MatsimRuntimeModifications:54 Getting uncaught Exception in Thread main
java.lang.IllegalArgumentException: acttype "home" is not known in utility parameters (module name="planCalcScore" in the config file).
	at org.matsim.core.scoring.functions.CharyparNagelActivityScoring.calcActScore(CharyparNagelActivityScoring.java:87)
	at org.matsim.core.scoring.functions.CharyparNagelActivityScoring.handleOvernightActivity(CharyparNagelActivityScoring.java:265)
	at org.matsim.core.scoring.functions.CharyparNagelActivityScoring.handleLastActivity(CharyparNagelActivityScoring.java:293)
	at org.matsim.core.scoring.SumScoringFunction.handleActivity(SumScoringFunction.java:80)
	at org.matsim.core.scoring.ScoringFunctionsForPopulation.handleActivity(ScoringFunctionsForPopulation.java:232)
	at org.matsim.core.scoring.EventsToActivities.finish(EventsToActivities.java:111)
	at org.matsim.core.scoring.EventsToActivities$1.notifyAfterMobsim(EventsToActivities.java:72)
	at org.matsim.core.controler.ControlerListenerManagerImpl.fireControlerAfterMobsimEvent(ControlerListenerManagerImpl.java:249)
	at org.matsim.core.controler.AbstractController$9.run(AbstractController.java:221)
	at org.matsim.core.controler.AbstractController.iterationStep(AbstractController.java:229)
	at org.matsim.core.controler.AbstractController.mobsim(AbstractController.java:217)
	at org.matsim.core.controler.AbstractController.iteration(AbstractController.java:144)
	at org.matsim.core.controler.AbstractController.doIterations(AbstractController.java:112)
	at org.matsim.core.controler.AbstractController.access$100(AbstractController.java:28)
	at org.matsim.core.controler.AbstractController$1.run(AbstractController.java:80)
	at org.matsim.core.controler.MatsimRuntimeModifications.run(MatsimRuntimeModifications.java:48)
	at org.matsim.core.controler.MatsimRuntimeModifications.run(MatsimRuntimeModifications.java:31)
	at org.matsim.core.controler.AbstractController.run(AbstractController.java:88)
	at org.matsim.core.controler.NewControler.run(NewControler.java:84)
	at org.matsim.core.controler.Controler.run(Controler.java:240)
	at Testing.main(Testing.java:28)
2021-05-25 09:51:40,536  INFO MatsimRuntimeModifications:58 S H U T D O W N   ---   start shutdown.
2021-05-25 09:51:40,537 ERROR MatsimRuntimeModifications:60 ERROR --- This is an unexpected shutdown!
2021-05-25 09:51:40,537 ERROR MatsimRuntimeModifications:63 Shutdown possibly caused by the following Exception:
java.lang.IllegalArgumentException: acttype "home" is not known in utility parameters (module name="planCalcScore" in the config file).
	at org.matsim.core.scoring.functions.CharyparNagelActivityScoring.calcActScore(CharyparNagelActivityScoring.java:87)
	at org.matsim.core.scoring.functions.CharyparNagelActivityScoring.handleOvernightActivity(CharyparNagelActivityScoring.java:265)
	at org.matsim.core.scoring.functions.CharyparNagelActivityScoring.handleLastActivity(CharyparNagelActivityScoring.java:293)
	at org.matsim.core.scoring.SumScoringFunction.handleActivity(SumScoringFunction.java:80)
	at org.matsim.core.scoring.ScoringFunctionsForPopulation.handleActivity(ScoringFunctionsForPopulation.java:232)
	at org.matsim.core.scoring.EventsToActivities.finish(EventsToActivities.java:111)
	at org.matsim.core.scoring.EventsToActivities$1.notifyAfterMobsim(EventsToActivities.java:72)
	at org.matsim.core.controler.ControlerListenerManagerImpl.fireControlerAfterMobsimEvent(ControlerListenerManagerImpl.java:249)
	at org.matsim.core.controler.AbstractController$9.run(AbstractController.java:221)
	at org.matsim.core.controler.AbstractController.iterationStep(AbstractController.java:229)
	at org.matsim.core.controler.AbstractController.mobsim(AbstractController.java:217)
	at org.matsim.core.controler.AbstractController.iteration(AbstractController.java:144)
	at org.matsim.core.controler.AbstractController.doIterations(AbstractController.java:112)
	at org.matsim.core.controler.AbstractController.access$100(AbstractController.java:28)
	at org.matsim.core.controler.AbstractController$1.run(AbstractController.java:80)
	at org.matsim.core.controler.MatsimRuntimeModifications.run(MatsimRuntimeModifications.java:48)
	at org.matsim.core.controler.MatsimRuntimeModifications.run(MatsimRuntimeModifications.java:31)
	at org.matsim.core.controler.AbstractController.run(AbstractController.java:88)
	at org.matsim.core.controler.NewControler.run(NewControler.java:84)
	at org.matsim.core.controler.Controler.run(Controler.java:240)
	at Testing.main(Testing.java:28)
2021-05-25 09:51:40,537  INFO ControlerListenerManagerImpl:121 calling notifyShutdown on org.matsim.core.controler.corelisteners.EventsHandlingImpl
2021-05-25 09:51:40,537  INFO ControlerListenerManagerImpl:121 calling notifyShutdown on org.matsim.core.controler.corelisteners.DumpDataAtEndImpl
2021-05-25 09:51:40,537  INFO ControlerListenerManagerImpl:126 calling notifyShutdown on org.matsim.analysis.ModeStatsControlerListener
2021-05-25 09:51:40,537  INFO ControlerListenerManagerImpl:126 calling notifyShutdown on org.matsim.analysis.ScoreStatsControlerListener
2021-05-25 09:51:40,537  INFO ControlerListenerManagerImpl:126 calling notifyShutdown on org.matsim.analysis.TravelDistanceStatsControlerListener
2021-05-25 09:51:40,538  INFO ControlerListenerManagerImpl:129 all ControlerShutdownListeners called.
2021-05-25 09:51:40,538 ERROR MatsimRuntimeModifications:78 ERROR --- MATSim unexpectedly terminated. Please check the output or the logfile with warnings and errors for hints.
2021-05-25 09:51:40,538 ERROR MatsimRuntimeModifications:79 ERROR --- results should not be used for further analysis.
2021-05-25 09:51:40,538  INFO MatsimRuntimeModifications:81 S H U T D O W N   ---   shutdown completed.
2021-05-25 09:51:40,538 ERROR MatsimRuntimeModifications:83 ERROR --- This was an unexpected shutdown! See the log file for a possible reason.
