<?xml version="1.0" encoding="UTF-8"?>

<vehicleDefinitions xmlns="http://www.matsim.org/files/dtd" xmlns:xsi="http://www.w3.org/2001/XMLSchema-instance" xsi:schemaLocation="http://www.matsim.org/files/dtd http://www.matsim.org/files/dtd/vehicleDefinitions_v1.0.xsd">
	<vehicleType id="1">
		<description>
				Metro_Refurb
		</description>
		<capacity>
			<seats persons="114"/>
			<standingRoom persons="206"/>
		</capacity>
		<length meter="150.0"/>
		<width meter="1.0"/>
		<accessTime secondsPerPerson="0.0"/>
		<egressTime secondsPerPerson="0.0"/>
		<doorOperation mode="serial"/>
		<passengerCarEquivalents pce="0.25"/>
	</vehicleType>
	<vehicleType id="2">
		<description>
				COMENG (REFURB)
		</description>
		<capacity>
			<seats persons="114"/>
			<standingRoom persons="206"/>
		</capacity>
		<length meter="150.0"/>
		<width meter="1.0"/>
		<accessTime secondsPerPerson="0.0"/>
		<egressTime secondsPerPerson="0.0"/>
		<doorOperation mode="serial"/>
		<passengerCarEquivalents pce="0.25"/>
	</vehicleType>
	<vehicleType id="10">
		<description>
				Sun_Dan_Trains
		</description>
		<capacity>
			<seats persons="161"/>
			<standingRoom persons="357"/>
		</capacity>
		<length meter="150.0"/>
		<width meter="1.0"/>
		<accessTime secondsPerPerson="0.0"/>
		<egressTime secondsPerPerson="0.0"/>
		<doorOperation mode="serial"/>
		<passengerCarEquivalents pce="0.25"/>
	</vehicleType>
	<vehicleType id="11">
		<description>
				Fish_Bend_Trains
		</description>
		<capacity>
			<seats persons="100"/>
			<standingRoom persons="263"/>
		</capacity>
		<length meter="150.0"/>
		<width meter="1.0"/>
		<accessTime secondsPerPerson="0.0"/>
		<egressTime secondsPerPerson="0.0"/>
		<doorOperation mode="serial"/>
		<passengerCarEquivalents pce="0.25"/>
	</vehicleType>
	<vehicleType id="16">
		<description>
				Metro6Car
		</description>
		<capacity>
			<seats persons="113"/>
			<standingRoom persons="238"/>
		</capacity>
		<length meter="150.0"/>
		<width meter="1.0"/>
		<accessTime secondsPerPerson="0.0"/>
		<egressTime secondsPerPerson="0.0"/>
		<doorOperation mode="serial"/>
		<passengerCarEquivalents pce="0.25"/>
	</vehicleType>
	<vehicleType id="17">
		<description>
				Metro7Car
		</description>
		<capacity>
			<seats persons="113"/>
			<standingRoom persons="250"/>
		</capacity>
		<length meter="175.0"/>
		<width meter="1.0"/>
		<accessTime secondsPerPerson="0.0"/>
		<egressTime secondsPerPerson="0.0"/>
		<doorOperation mode="serial"/>
		<passengerCarEquivalents pce="0.25"/>
	</vehicleType>
	<vehicleType id="18">
		<description>
				HCMT
		</description>
		<capacity>
			<seats persons="138"/>
			<standingRoom persons="218"/>
		</capacity>
		<length meter="180.0"/>
		<width meter="1.0"/>
		<accessTime secondsPerPerson="0.0"/>
		<egressTime secondsPerPerson="0.0"/>
		<doorOperation mode="serial"/>
		<passengerCarEquivalents pce="0.25"/>
	</vehicleType>
	<vehicleType id="19">
		<description>
				HCMT9car
		</description>
		<capacity>
			<seats persons="178"/>
			<standingRoom persons="280"/>
		</capacity>
		<length meter="195.0"/>
		<width meter="1.0"/>
		<accessTime secondsPerPerson="0.0"/>
		<egressTime secondsPerPerson="0.0"/>
		<doorOperation mode="serial"/>
		<passengerCarEquivalents pce="0.25"/>
	</vehicleType>
	<vehicleType id="20">
		<description>
				Extended HCMT
		</description>
		<capacity>
			<seats persons="196"/>
			<standingRoom persons="310"/>
		</capacity>
		<length meter="210.0"/>
		<width meter="1.0"/>
		<accessTime secondsPerPerson="0.0"/>
		<egressTime secondsPerPerson="0.0"/>
		<doorOperation mode="serial"/>
		<passengerCarEquivalents pce="0.25"/>
	</vehicleType>
	<vehicleType id="21">
		<description>
				Tram_type1
		</description>
		<capacity>
			<seats persons="15"/>
			<standingRoom persons="43"/>
		</capacity>
		<length meter="30.0"/>
		<width meter="1.0"/>
		<accessTime secondsPerPerson="0.0"/>
		<egressTime secondsPerPerson="0.0"/>
		<doorOperation mode="serial"/>
		<passengerCarEquivalents pce="0.25"/>
	</vehicleType>
	<vehicleType id="22">
		<description>
				Tram_type2
		</description>
		<capacity>
			<seats persons="15"/>
			<standingRoom persons="30"/>
		</capacity>
		<length meter="30.0"/>
		<width meter="1.0"/>
		<accessTime secondsPerPerson="0.0"/>
		<egressTime secondsPerPerson="0.0"/>
		<doorOperation mode="serial"/>
		<passengerCarEquivalents pce="0.25"/>
	</vehicleType>
	<vehicleType id="23">
		<description>
				Tram_type3
		</description>
		<capacity>
			<seats persons="16"/>
			<standingRoom persons="57"/>
		</capacity>
		<length meter="30.0"/>
		<width meter="1.0"/>
		<accessTime secondsPerPerson="0.0"/>
		<egressTime secondsPerPerson="0.0"/>
		<doorOperation mode="serial"/>
		<passengerCarEquivalents pce="0.25"/>
	</vehicleType>
	<vehicleType id="24">
		<description>
				Tram_type4
		</description>
		<capacity>
			<seats persons="10"/>
			<standingRoom persons="23"/>
		</capacity>
		<length meter="30.0"/>
		<width meter="1.0"/>
		<accessTime secondsPerPerson="0.0"/>
		<egressTime secondsPerPerson="0.0"/>
		<doorOperation mode="serial"/>
		<passengerCarEquivalents pce="0.25"/>
	</vehicleType>
	<vehicleType id="25">
		<description>
				Tram_type5
		</description>
		<capacity>
			<seats persons="13"/>
			<standingRoom persons="33"/>
		</capacity>
		<length meter="30.0"/>
		<width meter="1.0"/>
		<accessTime secondsPerPerson="0.0"/>
		<egressTime secondsPerPerson="0.0"/>
		<doorOperation mode="serial"/>
		<passengerCarEquivalents pce="0.25"/>
	</vehicleType>
	<vehicleType id="26">
		<description>
				Tram_type6
		</description>
		<capacity>
			<seats persons="16"/>
			<standingRoom persons="50"/>
		</capacity>
		<length meter="30.0"/>
		<width meter="1.0"/>
		<accessTime secondsPerPerson="0.0"/>
		<egressTime secondsPerPerson="0.0"/>
		<doorOperation mode="serial"/>
		<passengerCarEquivalents pce="0.25"/>
	</vehicleType>
	<vehicleType id="27">
		<description>
				Tram_type7
		</description>
		<capacity>
			<seats persons="10"/>
			<standingRoom persons="63"/>
		</capacity>
		<length meter="30.0"/>
		<width meter="1.0"/>
		<accessTime secondsPerPerson="0.0"/>
		<egressTime secondsPerPerson="0.0"/>
		<doorOperation mode="serial"/>
		<passengerCarEquivalents pce="0.25"/>
	</vehicleType>
	<vehicleType id="28">
		<description>
				Tram_type8
		</description>
		<capacity>
			<seats persons="15"/>
			<standingRoom persons="58"/>
		</capacity>
		<length meter="30.0"/>
		<width meter="1.0"/>
		<accessTime secondsPerPerson="0.0"/>
		<egressTime secondsPerPerson="0.0"/>
		<doorOperation mode="serial"/>
		<passengerCarEquivalents pce="0.25"/>
	</vehicleType>
	<vehicleType id="29">
		<description>
				Tram_type9
		</description>
		<capacity>
			<seats persons="16"/>
			<standingRoom persons="57"/>
		</capacity>
		<length meter="30.0"/>
		<width meter="1.0"/>
		<accessTime secondsPerPerson="0.0"/>
		<egressTime secondsPerPerson="0.0"/>
		<doorOperation mode="serial"/>
		<passengerCarEquivalents pce="0.25"/>
	</vehicleType>
	<vehicleType id="30">
		<description>
				Tram_type10
		</description>
		<capacity>
			<seats persons="16"/>
			<standingRoom persons="47"/>
		</capacity>
		<length meter="30.0"/>
		<width meter="1.0"/>
		<accessTime secondsPerPerson="0.0"/>
		<egressTime secondsPerPerson="0.0"/>
		<doorOperation mode="serial"/>
		<passengerCarEquivalents pce="0.25"/>
	</vehicleType>
	<vehicleType id="3">
		<description>
				Bus
		</description>
		<capacity>
			<seats persons="13"/>
			<standingRoom persons="6"/>
		</capacity>
		<length meter="15.0"/>
		<width meter="1.0"/>
		<accessTime secondsPerPerson="0.0"/>
		<egressTime secondsPerPerson="0.0"/>
		<doorOperation mode="serial"/>
		<passengerCarEquivalents pce="0.25"/>
	</vehicleType>
	<vehicleType id="4">
		<description>
				SkyBus
		</description>
		<capacity>
			<seats persons="25"/>
			<standingRoom persons="13"/>
		</capacity>
		<length meter="18.0"/>
		<width meter="1.0"/>
		<accessTime secondsPerPerson="0.0"/>
		<egressTime secondsPerPerson="0.0"/>
		<doorOperation mode="serial"/>
		<passengerCarEquivalents pce="0.25"/>
	</vehicleType>
	<vehicleType id="5">
		<description>
				Bus401PROJ
		</description>
		<capacity>
			<seats persons="13"/>
			<standingRoom persons="23"/>
		</capacity>
		<length meter="18.0"/>
		<width meter="1.0"/>
		<accessTime secondsPerPerson="0.0"/>
		<egressTime secondsPerPerson="0.0"/>
		<doorOperation mode="serial"/>
		<passengerCarEquivalents pce="0.25"/>
	</vehicleType>
	<vehicleType id="6">
		<description>
				articulated bus
		</description>
		<capacity>
			<seats persons="18"/>
			<standingRoom persons="10"/>
		</capacity>
		<length meter="18.0"/>
		<width meter="1.0"/>
		<accessTime secondsPerPerson="0.0"/>
		<egressTime secondsPerPerson="0.0"/>
		<doorOperation mode="serial"/>
		<passengerCarEquivalents pce="0.25"/>
	</vehicleType>
	<vehicleType id="41">
		<description>
				Vline_VL6
		</description>
		<capacity>
			<seats persons="111"/>
			<standingRoom persons="61"/>
		</capacity>
		<length meter="150.0"/>
		<width meter="1.0"/>
		<accessTime secondsPerPerson="0.0"/>
		<egressTime secondsPerPerson="0.0"/>
		<doorOperation mode="serial"/>
		<passengerCarEquivalents pce="0.25"/>
	</vehicleType>
	<vehicleType id="42">
		<description>
				Vline_Ballarat
		</description>
		<capacity>
			<seats persons="111"/>
			<standingRoom persons="11"/>
		</capacity>
		<length meter="150.0"/>
		<width meter="1.0"/>
		<accessTime secondsPerPerson="0.0"/>
		<egressTime secondsPerPerson="0.0"/>
		<doorOperation mode="serial"/>
		<passengerCarEquivalents pce="0.25"/>
	</vehicleType>
	<vehicleType id="43">
		<description>
				HCDMU
		</description>
		<capacity>
			<seats persons="214"/>
			<standingRoom persons="149"/>
		</capacity>
		<length meter="210.0"/>
		<width meter="1.0"/>
		<accessTime secondsPerPerson="0.0"/>
		<egressTime secondsPerPerson="0.0"/>
		<doorOperation mode="serial"/>
		<passengerCarEquivalents pce="0.25"/>
	</vehicleType>
	<vehicleType id="44">
		<description>
				SP2
		</description>
		<capacity>
			<seats persons="45"/>
			<standingRoom persons="12"/>
		</capacity>
		<length meter="150.0"/>
		<width meter="1.0"/>
		<accessTime secondsPerPerson="0.0"/>
		<egressTime secondsPerPerson="0.0"/>
		<doorOperation mode="serial"/>
		<passengerCarEquivalents pce="0.25"/>
	</vehicleType>
	<vehicleType id="45">
		<description>
				SP4
		</description>
		<capacity>
			<seats persons="90"/>
			<standingRoom persons="23"/>
		</capacity>
		<length meter="150.0"/>
		<width meter="1.0"/>
		<accessTime secondsPerPerson="0.0"/>
		<egressTime secondsPerPerson="0.0"/>
		<doorOperation mode="serial"/>
		<passengerCarEquivalents pce="0.25"/>
	</vehicleType>
	<vehicleType id="46">
		<description>
				Vline_NZ5_SG
		</description>
		<capacity>
			<seats persons="90"/>
			<standingRoom persons="13"/>
		</capacity>
		<length meter="150.0"/>
		<width meter="1.0"/>
		<accessTime secondsPerPerson="0.0"/>
		<egressTime secondsPerPerson="0.0"/>
		<doorOperation mode="serial"/>
		<passengerCarEquivalents pce="0.25"/>
	</vehicleType>
	<vehicleType id="47">
		<description>
				VL6
		</description>
		<capacity>
			<seats persons="111"/>
			<standingRoom persons="61"/>
		</capacity>
		<length meter="150.0"/>
		<width meter="1.0"/>
		<accessTime secondsPerPerson="0.0"/>
		<egressTime secondsPerPerson="0.0"/>
		<doorOperation mode="serial"/>
		<passengerCarEquivalents pce="0.25"/>
	</vehicleType>
	<vehicleType id="48">
		<description>
				NZ5 (BG)
		</description>
		<capacity>
			<seats persons="93"/>
			<standingRoom persons="9"/>
		</capacity>
		<length meter="150.0"/>
		<width meter="1.0"/>
		<accessTime secondsPerPerson="0.0"/>
		<egressTime secondsPerPerson="0.0"/>
		<doorOperation mode="serial"/>
		<passengerCarEquivalents pce="0.25"/>
	</vehicleType>
	<vehicleType id="49">
		<description>
				NZ5 (SG)
		</description>
		<capacity>
			<seats persons="90"/>
			<standingRoom persons="13"/>
		</capacity>
		<length meter="150.0"/>
		<width meter="1.0"/>
		<accessTime secondsPerPerson="0.0"/>
		<egressTime secondsPerPerson="0.0"/>
		<doorOperation mode="serial"/>
		<passengerCarEquivalents pce="0.25"/>
	</vehicleType>
	<vehicle id="ALM Loop AS AC_0" type="1"/>
	<vehicle id="ALM Loop AS AC_1" type="1"/>
	<vehicle id="ALM Loop AS AC_2" type="1"/>
	<vehicle id="ALM Loop AS AC_3" type="1"/>
	<vehicle id="ALM Loop AS AC_4" type="1"/>
	<vehicle id="ALM Loop AS AC_5" type="1"/>
	<vehicle id="ALM Loop AS AC_6" type="1"/>
	<vehicle id="ALM Loop AS AC_7" type="1"/>
	<vehicle id="ALM Loop AS AC_8" type="1"/>
	<vehicle id="ALM Loop AS AC_9" type="1"/>
	<vehicle id="ALM Loop AS AC_10" type="1"/>
	<vehicle id="ALM Loop AS AC_11" type="1"/>
	<vehicle id="ALM Loop AS AC_12" type="1"/>
	<vehicle id="ALM Loop AS AC_13" type="1"/>
	<vehicle id="ALM Loop AS AC_14" type="1"/>
	<vehicle id="ALM Loop AS AC_15" type="1"/>
	<vehicle id="ALM Loop AS AC_16" type="1"/>
	<vehicle id="ALM Loop AS AC_17" type="1"/>
	<vehicle id="ALM Loop AS AC_18" type="1"/>
	<vehicle id="ALM Loop AS AC_19" type="1"/>
	<vehicle id="ALM Loop AS AC_20" type="1"/>
	<vehicle id="ALM Loop AS AC_21" type="1"/>
	<vehicle id="ALM Loop AS AC_22" type="1"/>
	<vehicle id="ALM Loop AS AC_23" type="1"/>
	<vehicle id="ALM Loop AS AC_24" type="1"/>
	<vehicle id="ALM Loop AS AC_25" type="1"/>
	<vehicle id="ALM Loop AS AC_26" type="1"/>
	<vehicle id="ALM Loop AS AC_27" type="1"/>
	<vehicle id="ALM Loop AS AC_28" type="1"/>
	<vehicle id="ALM Loop AS AC_29" type="1"/>
	<vehicle id="ALM Loop AS AC_30" type="1"/>
	<vehicle id="ALM Loop AS AC_31" type="1"/>
	<vehicle id="ALM Loop AS AC_32" type="1"/>
	<vehicle id="ALM Loop AS AC_33" type="1"/>
	<vehicle id="ALM Loop AS AC_34" type="1"/>
	<vehicle id="ALM Loop AS AC_35" type="1"/>
	<vehicle id="ALM Loop AS AC_36" type="1"/>
	<vehicle id="ALM Loop AS AC_37" type="1"/>
	<vehicle id="ALM Loop AS AC_38" type="1"/>
	<vehicle id="ALM Loop AS AC_39" type="1"/>
	<vehicle id="ALM Loop AS AC_40" type="1"/>
	<vehicle id="ALM Loop AS AC_41" type="1"/>
	<vehicle id="ALM Loop AS AC_42" type="1"/>
	<vehicle id="ALM Loop AS AC_43" type="1"/>
	<vehicle id="ALM Loop AS AC_44" type="1"/>
	<vehicle id="ALM Loop AS AC_45" type="1"/>
	<vehicle id="ALM Loop AS AC_46" type="1"/>
	<vehicle id="ALM Loop AS AC_47" type="1"/>
	<vehicle id="ALM Loop AS AC_48" type="1"/>
	<vehicle id="ALM Loop AS AC_49" type="1"/>
	<vehicle id="ALM Loop AS AC_50" type="1"/>
	<vehicle id="ALM Loop AS AC_51" type="1"/>
	<vehicle id="ALM Loop AS AC_52" type="1"/>
	<vehicle id="ALM Loop AS AC_53" type="1"/>
	<vehicle id="ALM Loop AS AC_54" type="1"/>
	<vehicle id="ALM Loop AS AC_55" type="1"/>
	<vehicle id="ALM Loop AS AC_56" type="1"/>
	<vehicle id="ALM Loop AS AC_57" type="1"/>
	<vehicle id="ALM Loop AS AC_58" type="1"/>
	<vehicle id="ALM Loop AS AC_59" type="1"/>
	<vehicle id="ALM Loop AS AC_60" type="1"/>
	<vehicle id="ALM Loop AS AC_61" type="1"/>
	<vehicle id="ALM Loop AS AC_62" type="1"/>
	<vehicle id="ALM Loop AS AC_63" type="1"/>
	<vehicle id="ALM Loop AS AC_64" type="1"/>
	<vehicle id="ALM Loop AS AC_65" type="1"/>
	<vehicle id="ALM Loop AS AC_66" type="1"/>
	<vehicle id="ALM Loop AS AC_67" type="1"/>
	<vehicle id="ALM Loop AS AC_68" type="1"/>
	<vehicle id="BEL Loop EX AC_0" type="1"/>
	<vehicle id="BEL Loop EX AC_1" type="1"/>
	<vehicle id="BEL Loop EX AC_2" type="1"/>
	<vehicle id="BEL Loop EX AC_3" type="1"/>
	<vehicle id="BEL Loop EX AC_4" type="1"/>
	<vehicle id="BEL Loop EX AC_5" type="1"/>
	<vehicle id="BEL Loop EX AC_6" type="1"/>
	<vehicle id="BEL Loop EX AC_7" type="1"/>
	<vehicle id="BEL Loop EX AC_8" type="1"/>
	<vehicle id="BEL Loop EX AC_9" type="1"/>
	<vehicle id="BEL Loop EX AC_10" type="1"/>
	<vehicle id="BEL Loop EX AC_11" type="1"/>
	<vehicle id="BEL Loop EX AC_12" type="1"/>
	<vehicle id="BEL Loop EX AC_13" type="1"/>
	<vehicle id="BEL Loop EX AC_14" type="1"/>
	<vehicle id="BEL Loop EX AC_15" type="1"/>
	<vehicle id="BEL Loop EX AC_16" type="1"/>
	<vehicle id="BEL Loop EX AC_17" type="1"/>
	<vehicle id="BEL Loop EX AC_18" type="1"/>
	<vehicle id="BEL Loop EX AC_19" type="1"/>
	<vehicle id="BEL Loop EX AC_20" type="1"/>
	<vehicle id="BEL Loop EX AC_21" type="1"/>
	<vehicle id="BEL Loop EX AC_22" type="1"/>
	<vehicle id="BEL Loop EX AC_23" type="1"/>
	<vehicle id="BEL Loop EX AC_24" type="1"/>
	<vehicle id="BEL Loop EX AC_25" type="1"/>
	<vehicle id="BEL Loop EX AC_26" type="1"/>
	<vehicle id="BEL Loop EX AC_27" type="1"/>
	<vehicle id="BEL Loop EX AC_28" type="1"/>
	<vehicle id="BEL Loop EX AC_29" type="1"/>
	<vehicle id="BEL Loop EX AC_30" type="1"/>
	<vehicle id="BEL Loop EX AC_31" type="1"/>
	<vehicle id="BEL Loop EX AC_32" type="1"/>
	<vehicle id="BEL Loop EX AC_33" type="1"/>
	<vehicle id="BEL Loop EX AC_34" type="1"/>
	<vehicle id="BEL Loop EX AC_35" type="1"/>
	<vehicle id="BEL Loop EX AC_36" type="1"/>
	<vehicle id="BEL Loop EX AC_37" type="1"/>
	<vehicle id="BEL Loop EX AC_38" type="1"/>
	<vehicle id="BEL Loop EX AC_39" type="1"/>
	<vehicle id="BEL Loop EX AC_40" type="1"/>
	<vehicle id="BEL Loop EX AC_41" type="1"/>
	<vehicle id="BEL Loop EX AC_42" type="1"/>
	<vehicle id="BEL Loop EX AC_43" type="1"/>
	<vehicle id="BEL Loop EX AC_44" type="1"/>
	<vehicle id="BEL Loop EX AC_45" type="1"/>
	<vehicle id="BEL Loop EX AC_46" type="1"/>
	<vehicle id="BEL Loop EX AC_47" type="1"/>
	<vehicle id="BEL Loop EX AC_48" type="1"/>
	<vehicle id="BEL Loop EX AC_49" type="1"/>
	<vehicle id="BEL Loop EX AC_50" type="1"/>
	<vehicle id="BEL Loop EX AC_51" type="1"/>
	<vehicle id="BEL Loop EX AC_52" type="1"/>
	<vehicle id="BEL Loop EX AC_53" type="1"/>
	<vehicle id="BEL Loop EX AC_54" type="1"/>
	<vehicle id="BEL Loop EX AC_55" type="1"/>
	<vehicle id="BEL Loop EX AC_56" type="1"/>
	<vehicle id="BEL Loop EX AC_57" type="1"/>
	<vehicle id="BEL Loop EX AC_58" type="1"/>
	<vehicle id="BEL Loop EX AC_59" type="1"/>
	<vehicle id="LIL Loop EX AC_0" type="1"/>
	<vehicle id="LIL Loop EX AC_1" type="1"/>
	<vehicle id="LIL Loop EX AC_2" type="1"/>
	<vehicle id="LIL Loop EX AC_3" type="1"/>
	<vehicle id="LIL Loop EX AC_4" type="1"/>
	<vehicle id="LIL Loop EX AC_5" type="1"/>
	<vehicle id="LIL Loop EX AC_6" type="1"/>
	<vehicle id="LIL Loop EX AC_7" type="1"/>
	<vehicle id="LIL Loop EX AC_8" type="1"/>
	<vehicle id="LIL Loop EX AC_9" type="1"/>
	<vehicle id="LIL Loop EX AC_10" type="1"/>
	<vehicle id="LIL Loop EX AC_11" type="1"/>
	<vehicle id="LIL Loop EX AC_12" type="1"/>
	<vehicle id="LIL Loop EX AC_13" type="1"/>
	<vehicle id="LIL Loop EX AC_14" type="1"/>
	<vehicle id="LIL Loop EX AC_15" type="1"/>
	<vehicle id="LIL Loop EX AC_16" type="1"/>
	<vehicle id="LIL Loop EX AC_17" type="1"/>
	<vehicle id="LIL Loop EX AC_18" type="1"/>
	<vehicle id="LIL Loop EX AC_19" type="1"/>
	<vehicle id="LIL Loop EX AC_20" type="1"/>
	<vehicle id="LIL Loop EX AC_21" type="1"/>
	<vehicle id="LIL Loop EX AC_22" type="1"/>
	<vehicle id="LIL Loop EX AC_23" type="1"/>
	<vehicle id="LIL Loop EX AC_24" type="1"/>
	<vehicle id="LIL Loop EX AC_25" type="1"/>
	<vehicle id="LIL Loop EX AC_26" type="1"/>
	<vehicle id="LIL Loop EX AC_27" type="1"/>
	<vehicle id="LIL Loop EX AC_28" type="1"/>
	<vehicle id="LIL Loop EX AC_29" type="1"/>
	<vehicle id="LIL Loop EX AC_30" type="1"/>
	<vehicle id="LIL Loop EX AC_31" type="1"/>
	<vehicle id="LIL Loop EX AC_32" type="1"/>
	<vehicle id="LIL Loop EX AC_33" type="1"/>
	<vehicle id="LIL Loop EX AC_34" type="1"/>
	<vehicle id="LIL Loop EX AC_35" type="1"/>
	<vehicle id="LIL Loop EX AC_36" type="1"/>
	<vehicle id="LIL Loop EX AC_37" type="1"/>
	<vehicle id="LIL Loop EX AC_38" type="1"/>
	<vehicle id="LIL Loop EX AC_39" type="1"/>
	<vehicle id="LIL Loop EX AC_40" type="1"/>
	<vehicle id="LIL Loop EX AC_41" type="1"/>
	<vehicle id="LIL Loop EX AC_42" type="1"/>
	<vehicle id="LIL Loop EX AC_43" type="1"/>
	<vehicle id="LIL Loop EX AC_44" type="1"/>
	<vehicle id="LIL Loop EX AC_45" type="1"/>
	<vehicle id="LIL Loop EX AC_46" type="1"/>
	<vehicle id="LIL Loop EX AC_47" type="1"/>
	<vehicle id="LIL Loop EX AC_48" type="1"/>
	<vehicle id="LIL Loop EX AC_49" type="1"/>
	<vehicle id="LIL Loop EX AC_50" type="1"/>
	<vehicle id="LIL Loop EX AC_51" type="1"/>
	<vehicle id="LIL Loop EX AC_52" type="1"/>
	<vehicle id="LIL Loop EX AC_53" type="1"/>
	<vehicle id="LIL Loop EX AC_54" type="1"/>
	<vehicle id="LIL Loop EX AC_55" type="1"/>
	<vehicle id="LIL Loop EX AC_56" type="1"/>
	<vehicle id="LIL Loop EX AC_57" type="1"/>
	<vehicle id="LIL Loop EX AC_58" type="1"/>
	<vehicle id="LIL Loop EX AC_59" type="1"/>
	<vehicle id="LIL Loop EX AC_60" type="1"/>
	<vehicle id="LIL Loop EX AC_61" type="1"/>
	<vehicle id="LIL Loop EX AC_62" type="1"/>
	<vehicle id="RWD Loop AS AC_0" type="1"/>
	<vehicle id="RWD Loop AS AC_1" type="1"/>
	<vehicle id="RWD Loop AS AC_2" type="1"/>
	<vehicle id="RWD Loop AS AC_3" type="1"/>
	<vehicle id="RWD Loop AS AC_4" type="1"/>
	<vehicle id="RWD Loop AS AC_5" type="1"/>
	<vehicle id="RWD Loop AS AC_6" type="1"/>
	<vehicle id="RWD Loop AS AC_7" type="1"/>
	<vehicle id="RWD Loop AS AC_8" type="1"/>
	<vehicle id="RWD Loop AS AC_9" type="1"/>
	<vehicle id="RWD Loop AS AC_10" type="1"/>
	<vehicle id="RWD Loop AS AC_11" type="1"/>
	<vehicle id="RWD Loop AS AC_12" type="1"/>
	<vehicle id="RWD Loop AS AC_13" type="1"/>
	<vehicle id="RWD Loop AS AC_14" type="1"/>
	<vehicle id="RWD Loop AS AC_15" type="1"/>
	<vehicle id="RWD Loop AS AC_16" type="1"/>
	<vehicle id="RWD Loop AS AC_17" type="1"/>
	<vehicle id="RWD Loop AS AC_18" type="1"/>
	<vehicle id="RWD Loop AS AC_19" type="1"/>
	<vehicle id="RWD Loop AS AC_20" type="1"/>
	<vehicle id="RWD Loop AS AC_21" type="1"/>
	<vehicle id="RWD Loop AS AC_22" type="1"/>
	<vehicle id="RWD Loop AS AC_23" type="1"/>
	<vehicle id="RWD Loop AS AC_24" type="1"/>
	<vehicle id="RWD Loop AS AC_25" type="1"/>
	<vehicle id="RWD Loop AS AC_26" type="1"/>
	<vehicle id="RWD Loop AS AC_27" type="1"/>
	<vehicle id="RWD Loop AS AC_28" type="1"/>
	<vehicle id="RWD Loop AS AC_29" type="1"/>
	<vehicle id="RWD Loop AS AC_30" type="1"/>
	<vehicle id="RWD Loop AS AC_31" type="1"/>
	<vehicle id="RWD Loop AS AC_32" type="1"/>
	<vehicle id="RWD Loop AS AC_33" type="1"/>
	<vehicle id="RWD Loop AS AC_34" type="1"/>
	<vehicle id="RWD Loop AS AC_35" type="1"/>
	<vehicle id="RWD Loop AS AC_36" type="1"/>
	<vehicle id="RWD Loop AS AC_37" type="1"/>
	<vehicle id="RWD Loop AS AC_38" type="1"/>
	<vehicle id="RWD Loop AS AC_39" type="1"/>
	<vehicle id="RWD Loop AS AC_40" type="1"/>
	<vehicle id="RWD Loop AS AC_41" type="1"/>
	<vehicle id="RWD Loop AS AC_42" type="1"/>
	<vehicle id="RWD Loop AS AC_43" type="1"/>
	<vehicle id="RWD Loop AS AC_44" type="1"/>
	<vehicle id="RWD Loop AS AC_45" type="1"/>
	<vehicle id="RWD Loop AS AC_46" type="1"/>
	<vehicle id="RWD Loop AS AC_47" type="1"/>
	<vehicle id="RWD Loop AS AC_48" type="1"/>
	<vehicle id="RWD Loop AS AC_49" type="1"/>
	<vehicle id="RWD Loop AS AC_50" type="1"/>
	<vehicle id="RWD Loop AS AC_51" type="1"/>
	<vehicle id="RWD Loop AS AC_52" type="1"/>
	<vehicle id="RWD Loop AS AC_53" type="1"/>
	<vehicle id="RWD Loop AS AC_54" type="1"/>
	<vehicle id="RWD Loop AS AC_55" type="1"/>
	<vehicle id="RWD Loop AS AC_56" type="1"/>
	<vehicle id="RWD Loop AS AC_57" type="1"/>
	<vehicle id="RWD Loop AS AC_58" type="1"/>
	<vehicle id="RWD Loop AS AC_59" type="1"/>
	<vehicle id="RWD Loop AS AC_60" type="1"/>
	<vehicle id="RWD Loop AS AC_61" type="1"/>
	<vehicle id="RWD Loop AS AC_62" type="1"/>
	<vehicle id="RWD Loop AS AC_63" type="1"/>
	<vehicle id="RWD Loop AS AC_64" type="1"/>
	<vehicle id="RWD Loop AS AC_65" type="1"/>
	<vehicle id="RWD Loop AS AC_66" type="1"/>
	<vehicle id="RWD Loop AS AC_67" type="1"/>
	<vehicle id="RWD Loop AS AC_68" type="1"/>
	<vehicle id="RWD Loop AS AC_69" type="1"/>
	<vehicle id="RWD Loop AS AC_70" type="1"/>
	<vehicle id="RWD Loop AS AC_71" type="1"/>
	<vehicle id="RWD Loop AS AC_72" type="1"/>
	<vehicle id="RWD Loop AS AC_73" type="1"/>
	<vehicle id="RWD Loop AS AC_74" type="1"/>
	<vehicle id="RWD Loop AS AC_75" type="1"/>
	<vehicle id="RWD Loop AS AC_76" type="1"/>
	<vehicle id="RWD Loop AS AC_77" type="1"/>
	<vehicle id="RWD Loop AS AC_78" type="1"/>
	<vehicle id="CGB Loop AS C_0" type="1"/>
	<vehicle id="CGB Loop AS C_1" type="1"/>
	<vehicle id="CGB Loop AS C_2" type="1"/>
	<vehicle id="CGB Loop AS C_3" type="1"/>
	<vehicle id="CGB Loop AS C_4" type="1"/>
	<vehicle id="CGB Loop AS C_5" type="1"/>
	<vehicle id="CGB Loop AS C_6" type="1"/>
	<vehicle id="CGB Loop AS C_7" type="1"/>
	<vehicle id="CGB Loop AS C_8" type="1"/>
	<vehicle id="CGB Loop AS C_9" type="1"/>
	<vehicle id="CGB Loop AS C_10" type="1"/>
	<vehicle id="CGB Loop AS C_11" type="1"/>
	<vehicle id="CGB Loop AS C_12" type="1"/>
	<vehicle id="CGB Loop AS C_13" type="1"/>
	<vehicle id="CGB Loop AS C_14" type="1"/>
	<vehicle id="CGB Loop AS C_15" type="1"/>
	<vehicle id="CGB Loop AS C_16" type="1"/>
	<vehicle id="CGB Loop AS C_17" type="1"/>
	<vehicle id="CGB Loop AS C_18" type="1"/>
	<vehicle id="CGB Loop AS C_19" type="1"/>
	<vehicle id="CGB Loop AS C_20" type="1"/>
	<vehicle id="CGB Loop AS C_21" type="1"/>
	<vehicle id="CGB Loop AS C_22" type="1"/>
	<vehicle id="CGB Loop AS C_23" type="1"/>
	<vehicle id="CGB Loop AS C_24" type="1"/>
	<vehicle id="CGB Loop AS C_25" type="1"/>
	<vehicle id="CGB Loop AS C_26" type="1"/>
	<vehicle id="CGB Loop AS C_27" type="1"/>
	<vehicle id="CGB Loop AS C_28" type="1"/>
	<vehicle id="CGB Loop AS C_29" type="1"/>
	<vehicle id="CGB Loop AS C_30" type="1"/>
	<vehicle id="CGB Loop AS C_31" type="1"/>
	<vehicle id="CGB Loop AS C_32" type="1"/>
	<vehicle id="CGB Loop AS C_33" type="1"/>
	<vehicle id="CGB Loop AS C_34" type="1"/>
	<vehicle id="CGB Loop AS C_35" type="1"/>
	<vehicle id="CGB Loop AS C_36" type="1"/>
	<vehicle id="CGB Loop AS C_37" type="1"/>
	<vehicle id="CGB Loop AS C_38" type="1"/>
	<vehicle id="CGB Loop AS C_39" type="1"/>
	<vehicle id="CGB Loop AS C_40" type="1"/>
	<vehicle id="CGB Loop AS C_41" type="1"/>
	<vehicle id="CGB Loop AS C_42" type="1"/>
	<vehicle id="CGB Loop AS C_43" type="1"/>
	<vehicle id="CGB Loop AS C_44" type="1"/>
	<vehicle id="CGB Loop AS C_45" type="1"/>
	<vehicle id="CGB Loop AS C_46" type="1"/>
	<vehicle id="CGB Loop AS C_47" type="1"/>
	<vehicle id="CGB Loop AS C_48" type="1"/>
	<vehicle id="CGB Loop AS C_49" type="1"/>
	<vehicle id="CGB Loop AS C_50" type="1"/>
	<vehicle id="CGB Loop AS C_51" type="1"/>
	<vehicle id="CGB Loop AS C_52" type="1"/>
	<vehicle id="CGB Loop AS C_53" type="1"/>
	<vehicle id="CGB Loop AS C_54" type="1"/>
	<vehicle id="CGB Loop AS C_55" type="1"/>
	<vehicle id="CGB Loop AS C_56" type="1"/>
	<vehicle id="CGB Loop AS C_57" type="1"/>
	<vehicle id="CGB Loop AS C_58" type="1"/>
	<vehicle id="CGB Loop AS C_59" type="1"/>
	<vehicle id="CGB Loop AS C_60" type="1"/>
	<vehicle id="CGB Loop AS C_61" type="1"/>
	<vehicle id="CGB Loop AS C_62" type="1"/>
	<vehicle id="CGB Loop AS C_63" type="1"/>
	<vehicle id="CGB Loop AS C_64" type="1"/>
	<vehicle id="CGB Loop AS C_65" type="1"/>
	<vehicle id="CGB Loop AS C_66" type="1"/>
	<vehicle id="CGB Loop AS C_67" type="1"/>
	<vehicle id="CGB Loop AS C_68" type="1"/>
	<vehicle id="CGB Loop AS C_69" type="1"/>
	<vehicle id="CGB Loop AS C_70" type="1"/>
	<vehicle id="CGB Loop AS C_71" type="1"/>
	<vehicle id="CGB Loop AS C_72" type="1"/>
	<vehicle id="CGB Loop AS C_73" type="1"/>
	<vehicle id="CGB Loop AS C_74" type="1"/>
	<vehicle id="CGB Loop AS C_75" type="1"/>
	<vehicle id="CGB Loop AS C_76" type="1"/>
	<vehicle id="CGB Loop AS C_77" type="1"/>
	<vehicle id="CGB Loop AS C_78" type="1"/>
	<vehicle id="CGB Loop AS C_79" type="1"/>
	<vehicle id="CGB Loop AS C_80" type="1"/>
	<vehicle id="CGB Loop AS C_81" type="1"/>
	<vehicle id="CGB Loop AS C_82" type="1"/>
	<vehicle id="CGB Loop AS C_83" type="1"/>
	<vehicle id="CGB Loop AS C_84" type="1"/>
	<vehicle id="CGB Loop AS C_85" type="1"/>
	<vehicle id="CGB Loop AS C_86" type="1"/>
	<vehicle id="CGB Loop AS C_87" type="1"/>
	<vehicle id="FRK Loop EX D_0" type="1"/>
	<vehicle id="FRK Loop EX D_1" type="1"/>
	<vehicle id="FRK Loop EX D_2" type="1"/>
	<vehicle id="FRK Loop EX D_3" type="1"/>
	<vehicle id="FRK Loop EX D_4" type="1"/>
	<vehicle id="FRK Loop EX D_5" type="1"/>
	<vehicle id="FRK Loop EX D_6" type="1"/>
	<vehicle id="FRK Loop EX D_7" type="1"/>
	<vehicle id="FRK Loop EX D_8" type="1"/>
	<vehicle id="FRK Loop EX D_9" type="1"/>
	<vehicle id="FRK Loop EX D_10" type="1"/>
	<vehicle id="FRK Loop EX D_11" type="1"/>
	<vehicle id="FRK Loop EX D_12" type="1"/>
	<vehicle id="FRK Loop EX D_13" type="1"/>
	<vehicle id="FRK Loop EX D_14" type="1"/>
	<vehicle id="FRK Loop EX D_15" type="1"/>
	<vehicle id="FRK Loop EX D_16" type="1"/>
	<vehicle id="FRK Loop EX D_17" type="1"/>
	<vehicle id="FRK Loop EX D_18" type="1"/>
	<vehicle id="FRK Loop EX D_19" type="1"/>
	<vehicle id="FRK Loop EX D_20" type="1"/>
	<vehicle id="FRK Loop EX D_21" type="1"/>
	<vehicle id="FRK Loop EX D_22" type="1"/>
	<vehicle id="FRK Loop EX D_23" type="1"/>
	<vehicle id="FRK Loop EX D_24" type="1"/>
	<vehicle id="FRK Loop EX D_25" type="1"/>
	<vehicle id="FRK Loop EX D_26" type="1"/>
	<vehicle id="FRK Loop EX D_27" type="1"/>
	<vehicle id="FRK Loop EX D_28" type="1"/>
	<vehicle id="FRK Loop EX D_29" type="1"/>
	<vehicle id="FRK Loop EX D_30" type="1"/>
	<vehicle id="FRK Loop EX D_31" type="1"/>
	<vehicle id="FRK Loop EX D_32" type="1"/>
	<vehicle id="FRK Loop EX D_33" type="1"/>
	<vehicle id="FRK Loop EX D_34" type="1"/>
	<vehicle id="FRK Loop EX D_35" type="1"/>
	<vehicle id="FRK Loop EX D_36" type="1"/>
	<vehicle id="FRK Loop EX D_37" type="1"/>
	<vehicle id="FRK Loop EX D_38" type="1"/>
	<vehicle id="FRK Loop EX D_39" type="1"/>
	<vehicle id="FRK Loop EX D_40" type="1"/>
	<vehicle id="FRK Loop EX D_41" type="1"/>
	<vehicle id="FRK Loop EX D_42" type="1"/>
	<vehicle id="FRK Loop EX D_43" type="1"/>
	<vehicle id="FRK Loop EX D_44" type="1"/>
	<vehicle id="FRK Loop EX D_45" type="1"/>
	<vehicle id="FRK Loop EX D_46" type="1"/>
	<vehicle id="FRK Loop EX D_47" type="1"/>
	<vehicle id="FRK Loop EX D_48" type="1"/>
	<vehicle id="FRK Loop EX D_49" type="1"/>
	<vehicle id="FRK Loop EX D_50" type="1"/>
	<vehicle id="FRK Loop EX D_51" type="1"/>
	<vehicle id="FRK Loop EX D_52" type="1"/>
	<vehicle id="FRK Loop EX D_53" type="1"/>
	<vehicle id="FRK Loop EX D_54" type="1"/>
	<vehicle id="FRK Loop EX D_55" type="1"/>
	<vehicle id="FRK Loop EX D_56" type="1"/>
	<vehicle id="FRK Loop EX D_57" type="1"/>
	<vehicle id="FRK Loop EX D_58" type="1"/>
	<vehicle id="FRK Loop EX D_59" type="1"/>
	<vehicle id="FRK Loop EX D_60" type="1"/>
	<vehicle id="FRK Loop EX D_61" type="1"/>
	<vehicle id="FRK Loop EX D_62" type="1"/>
	<vehicle id="FRK Loop EX D_63" type="1"/>
	<vehicle id="FRK Loop EX D_64" type="1"/>
	<vehicle id="FRK Loop EX D_65" type="1"/>
	<vehicle id="FRK Loop EX D_66" type="1"/>
	<vehicle id="FRK Loop EX D_67" type="1"/>
	<vehicle id="FRK Loop EX D_68" type="1"/>
	<vehicle id="FRK Loop EX D_69" type="1"/>
	<vehicle id="FRK Loop EX D_70" type="1"/>
	<vehicle id="FRK Loop EX D_71" type="1"/>
	<vehicle id="FRK Loop EX D_72" type="1"/>
	<vehicle id="FRK Loop EX D_73" type="1"/>
	<vehicle id="FRK Loop EX D_74" type="1"/>
	<vehicle id="FRK Loop EX D_75" type="1"/>
	<vehicle id="FRK Loop EX D_76" type="1"/>
	<vehicle id="FRK Loop EX D_77" type="1"/>
	<vehicle id="FRK Loop EX D_78" type="1"/>
	<vehicle id="FRK Loop EX D_79" type="1"/>
	<vehicle id="FRK Loop EX D_80" type="1"/>
	<vehicle id="FRK Loop EX D_81" type="1"/>
	<vehicle id="FRK Loop EX D_82" type="1"/>
	<vehicle id="FRK Loop EX D_83" type="1"/>
	<vehicle id="FRK Loop EX D_84" type="1"/>
	<vehicle id="FRK Loop EX D_85" type="1"/>
	<vehicle id="FRK Loop EX D_86" type="1"/>
	<vehicle id="FRK Loop EX D_87" type="1"/>
	<vehicle id="FRK Loop EX D_88" type="1"/>
	<vehicle id="FRK Loop EX D_89" type="1"/>
	<vehicle id="FRK Loop EX D_90" type="1"/>
	<vehicle id="FRK Loop EX D_91" type="1"/>
	<vehicle id="FRK Loop EX D_92" type="1"/>
	<vehicle id="FRK Loop EX D_93" type="1"/>
	<vehicle id="FRK Loop EX D_94" type="1"/>
	<vehicle id="FRK Loop EX D_95" type="1"/>
	<vehicle id="FRK Loop EX D_96" type="1"/>
	<vehicle id="FRK Loop EX D_97" type="1"/>
	<vehicle id="FRK Loop EX D_98" type="1"/>
	<vehicle id="FRK Loop EX D_99" type="1"/>
	<vehicle id="FRK Loop EX D_100" type="1"/>
	<vehicle id="FRK Loop EX D_101" type="1"/>
	<vehicle id="FRK Loop EX D_102" type="1"/>
	<vehicle id="FRK Loop EX D_103" type="1"/>
	<vehicle id="FRK Loop EX D_104" type="1"/>
	<vehicle id="FRK Loop EX D_105" type="1"/>
	<vehicle id="FRK Loop EX D_106" type="1"/>
	<vehicle id="FRK Loop EX D_107" type="1"/>
	<vehicle id="FRK Loop EX D_108" type="1"/>
	<vehicle id="FRK Loop EX D_109" type="1"/>
	<vehicle id="FRK Loop EX D_110" type="1"/>
	<vehicle id="FRK Loop EX D_111" type="1"/>
	<vehicle id="FRK Loop EX D_112" type="1"/>
	<vehicle id="FRK Loop EX D_113" type="1"/>
	<vehicle id="FRK Loop EX D_114" type="1"/>
	<vehicle id="CTH Loop AS D_0" type="1"/>
	<vehicle id="CTH Loop AS D_1" type="1"/>
	<vehicle id="CTH Loop AS D_2" type="1"/>
	<vehicle id="CTH Loop AS D_3" type="1"/>
	<vehicle id="CTH Loop AS D_4" type="1"/>
	<vehicle id="CTH Loop AS D_5" type="1"/>
	<vehicle id="CTH Loop AS D_6" type="1"/>
	<vehicle id="CTH Loop AS D_7" type="1"/>
	<vehicle id="CTH Loop AS D_8" type="1"/>
	<vehicle id="CTH Loop AS D_9" type="1"/>
	<vehicle id="CTH Loop AS D_10" type="1"/>
	<vehicle id="CTH Loop AS D_11" type="1"/>
	<vehicle id="CTH Loop AS D_12" type="1"/>
	<vehicle id="CTH Loop AS D_13" type="1"/>
	<vehicle id="CTH Loop AS D_14" type="1"/>
	<vehicle id="CTH Loop AS D_15" type="1"/>
	<vehicle id="CTH Loop AS D_16" type="1"/>
	<vehicle id="CTH Loop AS D_17" type="1"/>
	<vehicle id="CTH Loop AS D_18" type="1"/>
	<vehicle id="CTH Loop AS D_19" type="1"/>
	<vehicle id="CTH Loop AS D_20" type="1"/>
	<vehicle id="CTH Loop AS D_21" type="1"/>
	<vehicle id="CTH Loop AS D_22" type="1"/>
	<vehicle id="CTH Loop AS D_23" type="1"/>
	<vehicle id="CTH Loop AS D_24" type="1"/>
	<vehicle id="CTH Loop AS D_25" type="1"/>
	<vehicle id="CTH Loop AS D_26" type="1"/>
	<vehicle id="CTH Loop AS D_27" type="1"/>
	<vehicle id="CTH Loop AS D_28" type="1"/>
	<vehicle id="CTH Loop AS D_29" type="1"/>
	<vehicle id="CTH Loop AS D_30" type="1"/>
	<vehicle id="CTH Loop AS D_31" type="1"/>
	<vehicle id="CTH Loop AS D_32" type="1"/>
	<vehicle id="CTH Loop AS D_33" type="1"/>
	<vehicle id="CTH Loop AS D_34" type="1"/>
	<vehicle id="CTH Loop AS D_35" type="1"/>
	<vehicle id="CTH Loop AS D_36" type="1"/>
	<vehicle id="CTH Loop AS D_37" type="1"/>
	<vehicle id="CTH Loop AS D_38" type="1"/>
	<vehicle id="CTH Loop AS D_39" type="1"/>
	<vehicle id="CTH Loop AS D_40" type="1"/>
	<vehicle id="CTH Loop AS D_41" type="1"/>
	<vehicle id="CTH Loop AS D_42" type="1"/>
	<vehicle id="CTH Loop AS D_43" type="1"/>
	<vehicle id="CTH Loop AS D_44" type="1"/>
	<vehicle id="CTH Loop AS D_45" type="1"/>
	<vehicle id="CTH Loop AS D_46" type="1"/>
	<vehicle id="CTH Loop AS D_47" type="1"/>
	<vehicle id="CTH Loop AS D_48" type="1"/>
	<vehicle id="CTH Loop AS D_49" type="1"/>
	<vehicle id="CTH Loop AS D_50" type="1"/>
	<vehicle id="CTH Loop AS D_51" type="1"/>
	<vehicle id="CTH Loop AS D_52" type="1"/>
	<vehicle id="CTH Loop AS D_53" type="1"/>
	<vehicle id="CTH Loop AS D_54" type="1"/>
	<vehicle id="CTH Loop AS D_55" type="1"/>
	<vehicle id="CTH Loop AS D_56" type="1"/>
	<vehicle id="CTH Loop AS D_57" type="1"/>
	<vehicle id="CTH Loop AS D_58" type="1"/>
	<vehicle id="CTH Loop AS D_59" type="1"/>
	<vehicle id="CTH Loop AS D_60" type="1"/>
	<vehicle id="CTH Loop AS D_61" type="1"/>
	<vehicle id="CTH Loop AS D_62" type="1"/>
	<vehicle id="CTH Loop AS D_63" type="1"/>
	<vehicle id="CTH Loop AS D_64" type="1"/>
	<vehicle id="CTH Loop AS D_65" type="1"/>
	<vehicle id="CTH Loop AS D_66" type="1"/>
	<vehicle id="CTH Loop AS D_67" type="1"/>
	<vehicle id="CTH Loop AS D_68" type="1"/>
	<vehicle id="CTH Loop AS D_69" type="1"/>
	<vehicle id="CTH Loop AS D_70" type="1"/>
	<vehicle id="CTH Loop AS D_71" type="1"/>
	<vehicle id="CTH Loop AS D_72" type="1"/>
	<vehicle id="CTH Loop AS D_73" type="1"/>
	<vehicle id="CTH Loop AS D_74" type="1"/>
	<vehicle id="CTH Loop AS D_75" type="1"/>
	<vehicle id="CTH Loop AS D_76" type="1"/>
	<vehicle id="CTH Loop AS D_77" type="1"/>
	<vehicle id="CTH Loop AS D_78" type="1"/>
	<vehicle id="CTH Loop AS D_79" type="1"/>
	<vehicle id="CTH Loop AS D_80" type="1"/>
	<vehicle id="CTH Loop AS D_81" type="1"/>
	<vehicle id="CTH Loop AS D_82" type="1"/>
	<vehicle id="CTH Loop AS D_83" type="1"/>
	<vehicle id="CTH Loop AS D_84" type="1"/>
	<vehicle id="CTH Loop AS D_85" type="1"/>
	<vehicle id="CTH Loop AS D_86" type="1"/>
	<vehicle id="CTH Loop AS D_87" type="1"/>
	<vehicle id="CTH Loop AS D_88" type="1"/>
	<vehicle id="CTH Loop AS D_89" type="1"/>
	<vehicle id="CTH Loop AS D_90" type="1"/>
	<vehicle id="CTH Loop AS D_91" type="1"/>
	<vehicle id="CTH Loop AS D_92" type="1"/>
	<vehicle id="CTH Loop AS D_93" type="1"/>
	<vehicle id="CTH Loop AS D_94" type="1"/>
	<vehicle id="CTH Loop AS D_95" type="1"/>
	<vehicle id="CTH Loop AS D_96" type="1"/>
	<vehicle id="CTH Loop AS D_97" type="1"/>
	<vehicle id="CTH Loop AS D_98" type="1"/>
	<vehicle id="CTH Loop AS D_99" type="1"/>
	<vehicle id="CTH Loop AS D_100" type="1"/>
	<vehicle id="GLE Loop AS C_0" type="1"/>
	<vehicle id="GLE Loop AS C_1" type="1"/>
	<vehicle id="GLE Loop AS C_2" type="1"/>
	<vehicle id="GLE Loop AS C_3" type="1"/>
	<vehicle id="GLE Loop AS C_4" type="1"/>
	<vehicle id="GLE Loop AS C_5" type="1"/>
	<vehicle id="GLE Loop AS C_6" type="1"/>
	<vehicle id="GLE Loop AS C_7" type="1"/>
	<vehicle id="GLE Loop AS C_8" type="1"/>
	<vehicle id="GLE Loop AS C_9" type="1"/>
	<vehicle id="GLE Loop AS C_10" type="1"/>
	<vehicle id="GLE Loop AS C_11" type="1"/>
	<vehicle id="GLE Loop AS C_12" type="1"/>
	<vehicle id="GLE Loop AS C_13" type="1"/>
	<vehicle id="GLE Loop AS C_14" type="1"/>
	<vehicle id="GLE Loop AS C_15" type="1"/>
	<vehicle id="GLE Loop AS C_16" type="1"/>
	<vehicle id="GLE Loop AS C_17" type="1"/>
	<vehicle id="GLE Loop AS C_18" type="1"/>
	<vehicle id="GLE Loop AS C_19" type="1"/>
	<vehicle id="GLE Loop AS C_20" type="1"/>
	<vehicle id="GLE Loop AS C_21" type="1"/>
	<vehicle id="GLE Loop AS C_22" type="1"/>
	<vehicle id="GLE Loop AS C_23" type="1"/>
	<vehicle id="GLE Loop AS C_24" type="1"/>
	<vehicle id="GLE Loop AS C_25" type="1"/>
	<vehicle id="GLE Loop AS C_26" type="1"/>
	<vehicle id="GLE Loop AS C_27" type="1"/>
	<vehicle id="GLE Loop AS C_28" type="1"/>
	<vehicle id="GLE Loop AS C_29" type="1"/>
	<vehicle id="GLE Loop AS C_30" type="1"/>
	<vehicle id="GLE Loop AS C_31" type="1"/>
	<vehicle id="GLE Loop AS C_32" type="1"/>
	<vehicle id="GLE Loop AS C_33" type="1"/>
	<vehicle id="GLE Loop AS C_34" type="1"/>
	<vehicle id="GLE Loop AS C_35" type="1"/>
	<vehicle id="GLE Loop AS C_36" type="1"/>
	<vehicle id="GLE Loop AS C_37" type="1"/>
	<vehicle id="GLE Loop AS C_38" type="1"/>
	<vehicle id="GLE Loop AS C_39" type="1"/>
	<vehicle id="GLE Loop AS C_40" type="1"/>
	<vehicle id="GLE Loop AS C_41" type="1"/>
	<vehicle id="GLE Loop AS C_42" type="1"/>
	<vehicle id="GLE Loop AS C_43" type="1"/>
	<vehicle id="GLE Loop AS C_44" type="1"/>
	<vehicle id="GLE Loop AS C_45" type="1"/>
	<vehicle id="GLE Loop AS C_46" type="1"/>
	<vehicle id="GLE Loop AS C_47" type="1"/>
	<vehicle id="GLE Loop AS C_48" type="1"/>
	<vehicle id="GLE Loop AS C_49" type="1"/>
	<vehicle id="GLE Loop AS C_50" type="1"/>
	<vehicle id="GLE Loop AS C_51" type="1"/>
	<vehicle id="GLE Loop AS C_52" type="1"/>
	<vehicle id="GLE Loop AS C_53" type="1"/>
	<vehicle id="GLE Loop AS C_54" type="1"/>
	<vehicle id="GLE Loop AS C_55" type="1"/>
	<vehicle id="GLE Loop AS C_56" type="1"/>
	<vehicle id="GLE Loop AS C_57" type="1"/>
	<vehicle id="GLE Loop AS C_58" type="1"/>
	<vehicle id="GLE Loop AS C_59" type="1"/>
	<vehicle id="GLE Loop AS C_60" type="1"/>
	<vehicle id="GLE Loop AS C_61" type="1"/>
	<vehicle id="GLE Loop AS C_62" type="1"/>
	<vehicle id="GLE Loop AS C_63" type="1"/>
	<vehicle id="GLE Loop AS C_64" type="1"/>
	<vehicle id="GLE Loop AS C_65" type="1"/>
	<vehicle id="GLE Loop AS C_66" type="1"/>
	<vehicle id="GLE Loop AS C_67" type="1"/>
	<vehicle id="GLE Loop AS C_68" type="1"/>
	<vehicle id="GLE Loop AS C_69" type="1"/>
	<vehicle id="GLE Loop AS C_70" type="1"/>
	<vehicle id="GLE Loop AS C_71" type="1"/>
	<vehicle id="GLE Loop AS C_72" type="1"/>
	<vehicle id="GLE Loop AS C_73" type="1"/>
	<vehicle id="GLE Loop AS C_74" type="1"/>
	<vehicle id="GLE Loop AS C_75" type="1"/>
	<vehicle id="GLE Loop AS C_76" type="1"/>
	<vehicle id="GLE Loop AS C_77" type="1"/>
	<vehicle id="GLE Loop AS C_78" type="1"/>
	<vehicle id="GLE Loop AS C_79" type="1"/>
	<vehicle id="GLE Loop AS C_80" type="1"/>
	<vehicle id="GLE Loop AS C_81" type="1"/>
	<vehicle id="GLE Loop AS C_82" type="1"/>
	<vehicle id="HUR Loop EX C_0" type="1"/>
	<vehicle id="HUR Loop EX C_1" type="1"/>
	<vehicle id="HUR Loop EX C_2" type="1"/>
	<vehicle id="HUR Loop EX C_3" type="1"/>
	<vehicle id="HUR Loop EX C_4" type="1"/>
	<vehicle id="HUR Loop EX C_5" type="1"/>
	<vehicle id="HUR Loop EX C_6" type="1"/>
	<vehicle id="HUR Loop EX C_7" type="1"/>
	<vehicle id="HUR Loop EX C_8" type="1"/>
	<vehicle id="HUR Loop EX C_9" type="1"/>
	<vehicle id="HUR Loop EX C_10" type="1"/>
	<vehicle id="HUR Loop EX C_11" type="1"/>
	<vehicle id="HUR Loop EX C_12" type="1"/>
	<vehicle id="HUR Loop EX C_13" type="1"/>
	<vehicle id="HUR Loop EX C_14" type="1"/>
	<vehicle id="HUR Loop EX C_15" type="1"/>
	<vehicle id="HUR Loop EX C_16" type="1"/>
	<vehicle id="HUR Loop EX C_17" type="1"/>
	<vehicle id="HUR Loop EX C_18" type="1"/>
	<vehicle id="HUR Loop EX C_19" type="1"/>
	<vehicle id="HUR Loop EX C_20" type="1"/>
	<vehicle id="HUR Loop EX C_21" type="1"/>
	<vehicle id="HUR Loop EX C_22" type="1"/>
	<vehicle id="HUR Loop EX C_23" type="1"/>
	<vehicle id="HUR Loop EX C_24" type="1"/>
	<vehicle id="HUR Loop EX C_25" type="1"/>
	<vehicle id="HUR Loop EX C_26" type="1"/>
	<vehicle id="HUR Loop EX C_27" type="1"/>
	<vehicle id="HUR Loop EX C_28" type="1"/>
	<vehicle id="HUR Loop EX C_29" type="1"/>
	<vehicle id="HUR Loop EX C_30" type="1"/>
	<vehicle id="HUR Loop EX C_31" type="1"/>
	<vehicle id="HUR Loop EX C_32" type="1"/>
	<vehicle id="HUR Loop EX C_33" type="1"/>
	<vehicle id="HUR Loop EX C_34" type="1"/>
	<vehicle id="HUR Loop EX C_35" type="1"/>
	<vehicle id="HUR Loop EX C_36" type="1"/>
	<vehicle id="HUR Loop EX C_37" type="1"/>
	<vehicle id="ELT Loop AS C_0" type="1"/>
	<vehicle id="ELT Loop AS C_1" type="1"/>
	<vehicle id="ELT Loop AS C_2" type="1"/>
	<vehicle id="ELT Loop AS C_3" type="1"/>
	<vehicle id="ELT Loop AS C_4" type="1"/>
	<vehicle id="ELT Loop AS C_5" type="1"/>
	<vehicle id="ELT Loop AS C_6" type="1"/>
	<vehicle id="ELT Loop AS C_7" type="1"/>
	<vehicle id="ELT Loop AS C_8" type="1"/>
	<vehicle id="ELT Loop AS C_9" type="1"/>
	<vehicle id="ELT Loop AS C_10" type="1"/>
	<vehicle id="ELT Loop AS C_11" type="1"/>
	<vehicle id="ELT Loop AS C_12" type="1"/>
	<vehicle id="ELT Loop AS C_13" type="1"/>
	<vehicle id="ELT Loop AS C_14" type="1"/>
	<vehicle id="ELT Loop AS C_15" type="1"/>
	<vehicle id="ELT Loop AS C_16" type="1"/>
	<vehicle id="ELT Loop AS C_17" type="1"/>
	<vehicle id="ELT Loop AS C_18" type="1"/>
	<vehicle id="ELT Loop AS C_19" type="1"/>
	<vehicle id="ELT Loop AS C_20" type="1"/>
	<vehicle id="ELT Loop AS C_21" type="1"/>
	<vehicle id="ELT Loop AS C_22" type="1"/>
	<vehicle id="ELT Loop AS C_23" type="1"/>
	<vehicle id="ELT Loop AS C_24" type="1"/>
	<vehicle id="ELT Loop AS C_25" type="1"/>
	<vehicle id="ELT Loop AS C_26" type="1"/>
	<vehicle id="ELT Loop AS C_27" type="1"/>
	<vehicle id="ELT Loop AS C_28" type="1"/>
	<vehicle id="ELT Loop AS C_29" type="1"/>
	<vehicle id="ELT Loop AS C_30" type="1"/>
	<vehicle id="ELT Loop AS C_31" type="1"/>
	<vehicle id="ELT Loop AS C_32" type="1"/>
	<vehicle id="ELT Loop AS C_33" type="1"/>
	<vehicle id="ELT Loop AS C_34" type="1"/>
	<vehicle id="ELT Loop AS C_35" type="1"/>
	<vehicle id="ELT Loop AS C_36" type="1"/>
	<vehicle id="ELT Loop AS C_37" type="1"/>
	<vehicle id="ELT Loop AS C_38" type="1"/>
	<vehicle id="ELT Loop AS C_39" type="1"/>
	<vehicle id="ELT Loop AS C_40" type="1"/>
	<vehicle id="ELT Loop AS C_41" type="1"/>
	<vehicle id="ELT Loop AS C_42" type="1"/>
	<vehicle id="ELT Loop AS C_43" type="1"/>
	<vehicle id="ELT Loop AS C_44" type="1"/>
	<vehicle id="ELT Loop AS C_45" type="1"/>
	<vehicle id="ELT Loop AS C_46" type="1"/>
	<vehicle id="ELT Loop AS C_47" type="1"/>
	<vehicle id="ELT Loop AS C_48" type="1"/>
	<vehicle id="ELT Loop AS C_49" type="1"/>
	<vehicle id="ELT Loop AS C_50" type="1"/>
	<vehicle id="ELT Loop AS C_51" type="1"/>
	<vehicle id="ELT Loop AS C_52" type="1"/>
	<vehicle id="ELT Loop AS C_53" type="1"/>
	<vehicle id="ELT Loop AS C_54" type="1"/>
	<vehicle id="ELT Loop AS C_55" type="1"/>
	<vehicle id="ELT Loop AS C_56" type="1"/>
	<vehicle id="ELT Loop AS C_57" type="1"/>
	<vehicle id="ELT Loop AS C_58" type="1"/>
	<vehicle id="ELT Loop AS C_59" type="1"/>
	<vehicle id="ELT Loop AS C_60" type="1"/>
	<vehicle id="ELT Loop AS C_61" type="1"/>
	<vehicle id="ELT Loop AS C_62" type="1"/>
	<vehicle id="ELT Loop AS C_63" type="1"/>
	<vehicle id="ELT Loop AS C_64" type="1"/>
	<vehicle id="ELT Loop AS C_65" type="1"/>
	<vehicle id="ELT Loop AS C_66" type="1"/>
	<vehicle id="ELT Loop AS C_67" type="1"/>
	<vehicle id="ELT Loop AS C_68" type="1"/>
	<vehicle id="ELT Loop AS C_69" type="1"/>
	<vehicle id="ELT Loop AS C_70" type="1"/>
	<vehicle id="ELT Loop AS C_71" type="1"/>
	<vehicle id="ELT Loop AS C_72" type="1"/>
	<vehicle id="ELT Loop AS C_73" type="1"/>
	<vehicle id="ELT Loop AS C_74" type="1"/>
	<vehicle id="CRA Loop AS AC_0" type="1"/>
	<vehicle id="CRA Loop AS AC_1" type="1"/>
	<vehicle id="CRA Loop AS AC_2" type="1"/>
	<vehicle id="CRA Loop AS AC_3" type="1"/>
	<vehicle id="CRA Loop AS AC_4" type="1"/>
	<vehicle id="CRA Loop AS AC_5" type="1"/>
	<vehicle id="CRA Loop AS AC_6" type="1"/>
	<vehicle id="CRA Loop AS AC_7" type="1"/>
	<vehicle id="CRA Loop AS AC_8" type="1"/>
	<vehicle id="CRA Loop AS AC_9" type="1"/>
	<vehicle id="CRA Loop AS AC_10" type="1"/>
	<vehicle id="CRA Loop AS AC_11" type="1"/>
	<vehicle id="CRA Loop AS AC_12" type="1"/>
	<vehicle id="CRA Loop AS AC_13" type="1"/>
	<vehicle id="CRA Loop AS AC_14" type="1"/>
	<vehicle id="CRA Loop AS AC_15" type="1"/>
	<vehicle id="CRA Loop AS AC_16" type="1"/>
	<vehicle id="CRA Loop AS AC_17" type="1"/>
	<vehicle id="CRA Loop AS AC_18" type="1"/>
	<vehicle id="CRA Loop AS AC_19" type="1"/>
	<vehicle id="CRA Loop AS AC_20" type="1"/>
	<vehicle id="CRA Loop AS AC_21" type="1"/>
	<vehicle id="CRA Loop AS AC_22" type="1"/>
	<vehicle id="CRA Loop AS AC_23" type="1"/>
	<vehicle id="CRA Loop AS AC_24" type="1"/>
	<vehicle id="CRA Loop AS AC_25" type="1"/>
	<vehicle id="CRA Loop AS AC_26" type="1"/>
	<vehicle id="CRA Loop AS AC_27" type="1"/>
	<vehicle id="CRA Loop AS AC_28" type="1"/>
	<vehicle id="CRA Loop AS AC_29" type="1"/>
	<vehicle id="CRA Loop AS AC_30" type="1"/>
	<vehicle id="CRA Loop AS AC_31" type="1"/>
	<vehicle id="CRA Loop AS AC_32" type="1"/>
	<vehicle id="CRA Loop AS AC_33" type="1"/>
	<vehicle id="CRA Loop AS AC_34" type="1"/>
	<vehicle id="CRA Loop AS AC_35" type="1"/>
	<vehicle id="CRA Loop AS AC_36" type="1"/>
	<vehicle id="CRA Loop AS AC_37" type="1"/>
	<vehicle id="CRA Loop AS AC_38" type="1"/>
	<vehicle id="CRA Loop AS AC_39" type="1"/>
	<vehicle id="CRA Loop AS AC_40" type="1"/>
	<vehicle id="CRA Loop AS AC_41" type="1"/>
	<vehicle id="CRA Loop AS AC_42" type="1"/>
	<vehicle id="CRA Loop AS AC_43" type="1"/>
	<vehicle id="CRA Loop AS AC_44" type="1"/>
	<vehicle id="CRA Loop AS AC_45" type="1"/>
	<vehicle id="CRA Loop AS AC_46" type="1"/>
	<vehicle id="CRA Loop AS AC_47" type="1"/>
	<vehicle id="CRA Loop AS AC_48" type="1"/>
	<vehicle id="CRA Loop AS AC_49" type="1"/>
	<vehicle id="CRA Loop AS AC_50" type="1"/>
	<vehicle id="CRA Loop AS AC_51" type="1"/>
	<vehicle id="CRA Loop AS AC_52" type="1"/>
	<vehicle id="CRA Loop AS AC_53" type="1"/>
	<vehicle id="CRA Loop AS AC_54" type="1"/>
	<vehicle id="CRA Loop AS AC_55" type="1"/>
	<vehicle id="CRA Loop AS AC_56" type="1"/>
	<vehicle id="CRA Loop AS AC_57" type="1"/>
	<vehicle id="CRA Loop AS AC_58" type="1"/>
	<vehicle id="CRA Loop AS AC_59" type="1"/>
	<vehicle id="PAK Loop AS AC_0" type="1"/>
	<vehicle id="PAK Loop AS AC_1" type="1"/>
	<vehicle id="PAK Loop AS AC_2" type="1"/>
	<vehicle id="PAK Loop AS AC_3" type="1"/>
	<vehicle id="PAK Loop AS AC_4" type="1"/>
	<vehicle id="PAK Loop AS AC_5" type="1"/>
	<vehicle id="PAK Loop AS AC_6" type="1"/>
	<vehicle id="PAK Loop AS AC_7" type="1"/>
	<vehicle id="PAK Loop AS AC_8" type="1"/>
	<vehicle id="PAK Loop AS AC_9" type="1"/>
	<vehicle id="PAK Loop AS AC_10" type="1"/>
	<vehicle id="PAK Loop AS AC_11" type="1"/>
	<vehicle id="PAK Loop AS AC_12" type="1"/>
	<vehicle id="PAK Loop AS AC_13" type="1"/>
	<vehicle id="PAK Loop AS AC_14" type="1"/>
	<vehicle id="PAK Loop AS AC_15" type="1"/>
	<vehicle id="PAK Loop AS AC_16" type="1"/>
	<vehicle id="PAK Loop AS AC_17" type="1"/>
	<vehicle id="PAK Loop AS AC_18" type="1"/>
	<vehicle id="PAK Loop AS AC_19" type="1"/>
	<vehicle id="PAK Loop AS AC_20" type="1"/>
	<vehicle id="PAK Loop AS AC_21" type="1"/>
	<vehicle id="PAK Loop AS AC_22" type="1"/>
	<vehicle id="PAK Loop AS AC_23" type="1"/>
	<vehicle id="PAK Loop AS AC_24" type="1"/>
	<vehicle id="PAK Loop AS AC_25" type="1"/>
	<vehicle id="PAK Loop AS AC_26" type="1"/>
	<vehicle id="PAK Loop AS AC_27" type="1"/>
	<vehicle id="PAK Loop AS AC_28" type="1"/>
	<vehicle id="PAK Loop AS AC_29" type="1"/>
	<vehicle id="PAK Loop AS AC_30" type="1"/>
	<vehicle id="PAK Loop AS AC_31" type="1"/>
	<vehicle id="PAK Loop AS AC_32" type="1"/>
	<vehicle id="PAK Loop AS AC_33" type="1"/>
	<vehicle id="PAK Loop AS AC_34" type="1"/>
	<vehicle id="PAK Loop AS AC_35" type="1"/>
	<vehicle id="PAK Loop AS AC_36" type="1"/>
	<vehicle id="PAK Loop AS AC_37" type="1"/>
	<vehicle id="PAK Loop AS AC_38" type="1"/>
	<vehicle id="PAK Loop AS AC_39" type="1"/>
	<vehicle id="PAK Loop AS AC_40" type="1"/>
	<vehicle id="PAK Loop AS AC_41" type="1"/>
	<vehicle id="PAK Loop AS AC_42" type="1"/>
	<vehicle id="PAK Loop AS AC_43" type="1"/>
	<vehicle id="PAK Loop AS AC_44" type="1"/>
	<vehicle id="PAK Loop AS AC_45" type="1"/>
	<vehicle id="PAK Loop AS AC_46" type="1"/>
	<vehicle id="PAK Loop AS AC_47" type="1"/>
	<vehicle id="PAK Loop AS AC_48" type="1"/>
	<vehicle id="PAK Loop AS AC_49" type="1"/>
	<vehicle id="PAK Loop AS AC_50" type="1"/>
	<vehicle id="PAK Loop AS AC_51" type="1"/>
	<vehicle id="PAK Loop AS AC_52" type="1"/>
	<vehicle id="PAK Loop AS AC_53" type="1"/>
	<vehicle id="PAK Loop AS AC_54" type="1"/>
	<vehicle id="PAK Loop AS AC_55" type="1"/>
	<vehicle id="PAK Loop AS AC_56" type="1"/>
	<vehicle id="PAK Loop AS AC_57" type="1"/>
	<vehicle id="PAK Loop AS AC_58" type="1"/>
	<vehicle id="PAK Loop AS AC_59" type="1"/>
	<vehicle id="PAK Loop AS AC_60" type="1"/>
	<vehicle id="PAK Loop AS AC_61" type="1"/>
	<vehicle id="PAK Loop AS AC_62" type="1"/>
	<vehicle id="PAK Loop AS AC_63" type="1"/>
	<vehicle id="PAK Loop AS AC_64" type="1"/>
	<vehicle id="PAK Loop AS AC_65" type="1"/>
	<vehicle id="PAK Loop AS AC_66" type="1"/>
	<vehicle id="PAK Loop AS AC_67" type="1"/>
	<vehicle id="PAK Loop AS AC_68" type="1"/>
	<vehicle id="PAK Loop AS AC_69" type="1"/>
	<vehicle id="PAK Loop AS AC_70" type="1"/>
	<vehicle id="PAK Loop AS AC_71" type="1"/>
	<vehicle id="PAK Loop AS AC_72" type="1"/>
	<vehicle id="PAK Loop AS AC_73" type="1"/>
	<vehicle id="PAK Loop AS AC_74" type="1"/>
	<vehicle id="PAK Loop AS AC_75" type="1"/>
	<vehicle id="PAK Loop AS AC_76" type="1"/>
	<vehicle id="PAK Loop AS AC_77" type="1"/>
	<vehicle id="PAK Loop AS AC_78" type="1"/>
	<vehicle id="PAK Loop AS AC_79" type="1"/>
	<vehicle id="PAK Loop AS AC_80" type="1"/>
	<vehicle id="PAK Loop AS AC_81" type="1"/>
	<vehicle id="PAK Loop AS AC_82" type="1"/>
	<vehicle id="PAK Loop AS AC_83" type="1"/>
	<vehicle id="PAK Loop AS AC_84" type="1"/>
	<vehicle id="PAK Loop AS AC_85" type="1"/>
	<vehicle id="PAK Loop AS AC_86" type="1"/>
	<vehicle id="PAK Loop AS AC_87" type="1"/>
	<vehicle id="SAN Loop AS D_0" type="1"/>
	<vehicle id="SAN Loop AS D_1" type="1"/>
	<vehicle id="SAN Loop AS D_2" type="1"/>
	<vehicle id="SAN Loop AS D_3" type="1"/>
	<vehicle id="SAN Loop AS D_4" type="1"/>
	<vehicle id="SAN Loop AS D_5" type="1"/>
	<vehicle id="SAN Loop AS D_6" type="1"/>
	<vehicle id="SAN Loop AS D_7" type="1"/>
	<vehicle id="SAN Loop AS D_8" type="1"/>
	<vehicle id="SAN Loop AS D_9" type="1"/>
	<vehicle id="SAN Loop AS D_10" type="1"/>
	<vehicle id="SAN Loop AS D_11" type="1"/>
	<vehicle id="SAN Loop AS D_12" type="1"/>
	<vehicle id="SAN Loop AS D_13" type="1"/>
	<vehicle id="SAN Loop AS D_14" type="1"/>
	<vehicle id="SAN Loop AS D_15" type="1"/>
	<vehicle id="SAN Loop AS D_16" type="1"/>
	<vehicle id="SAN Loop AS D_17" type="1"/>
	<vehicle id="SAN Loop AS D_18" type="1"/>
	<vehicle id="SAN Loop AS D_19" type="1"/>
	<vehicle id="SAN Loop AS D_20" type="1"/>
	<vehicle id="SAN Loop AS D_21" type="1"/>
	<vehicle id="SAN Loop AS D_22" type="1"/>
	<vehicle id="SAN Loop AS D_23" type="1"/>
	<vehicle id="SAN Loop AS D_24" type="1"/>
	<vehicle id="SAN Loop AS D_25" type="1"/>
	<vehicle id="SAN Loop AS D_26" type="1"/>
	<vehicle id="SAN Loop AS D_27" type="1"/>
	<vehicle id="SAN Loop AS D_28" type="1"/>
	<vehicle id="SAN Loop AS D_29" type="1"/>
	<vehicle id="SAN Loop AS D_30" type="1"/>
	<vehicle id="SAN Loop AS D_31" type="1"/>
	<vehicle id="SAN Loop AS D_32" type="1"/>
	<vehicle id="SAN Loop AS D_33" type="1"/>
	<vehicle id="SAN Loop AS D_34" type="1"/>
	<vehicle id="SAN Loop AS D_35" type="1"/>
	<vehicle id="SAN Loop AS D_36" type="1"/>
	<vehicle id="SAN Loop AS D_37" type="1"/>
	<vehicle id="SAN Loop AS D_38" type="1"/>
	<vehicle id="SAN Loop AS D_39" type="1"/>
	<vehicle id="SAN Loop AS D_40" type="1"/>
	<vehicle id="SAN Loop AS D_41" type="1"/>
	<vehicle id="SAN Loop AS D_42" type="1"/>
	<vehicle id="SAN Loop AS D_43" type="1"/>
	<vehicle id="SAN Loop AS D_44" type="1"/>
	<vehicle id="SAN Loop AS D_45" type="1"/>
	<vehicle id="SAN Loop AS D_46" type="1"/>
	<vehicle id="SAN Loop AS D_47" type="1"/>
	<vehicle id="SAN Loop AS D_48" type="1"/>
	<vehicle id="SAN Loop AS D_49" type="1"/>
	<vehicle id="SAN Loop AS D_50" type="1"/>
	<vehicle id="SAN Loop AS D_51" type="1"/>
	<vehicle id="SAN Loop AS D_52" type="1"/>
	<vehicle id="SAN Loop AS D_53" type="1"/>
	<vehicle id="SAN Loop AS D_54" type="1"/>
	<vehicle id="SAN Loop AS D_55" type="1"/>
	<vehicle id="SAN Loop AS D_56" type="1"/>
	<vehicle id="SAN Loop AS D_57" type="1"/>
	<vehicle id="SAN Loop AS D_58" type="1"/>
	<vehicle id="SAN Loop AS D_59" type="1"/>
	<vehicle id="SAN Loop AS D_60" type="1"/>
	<vehicle id="SAN Loop AS D_61" type="1"/>
	<vehicle id="SAN Loop AS D_62" type="1"/>
	<vehicle id="SAN Loop AS D_63" type="1"/>
	<vehicle id="SAN Loop AS D_64" type="1"/>
	<vehicle id="SAN Loop AS D_65" type="1"/>
	<vehicle id="SAN Loop AS D_66" type="1"/>
	<vehicle id="SAN Loop AS D_67" type="1"/>
	<vehicle id="SAN Loop AS D_68" type="1"/>
	<vehicle id="SAN Loop AS D_69" type="1"/>
	<vehicle id="SAN Loop AS D_70" type="1"/>
	<vehicle id="SAN Loop AS D_71" type="1"/>
	<vehicle id="SAN Loop AS D_72" type="1"/>
	<vehicle id="SAN Loop AS D_73" type="1"/>
	<vehicle id="SAN Loop AS D_74" type="1"/>
	<vehicle id="SAN Loop AS D_75" type="1"/>
	<vehicle id="SAN Loop AS D_76" type="1"/>
	<vehicle id="SAN Loop AS D_77" type="1"/>
	<vehicle id="SAN Loop AS D_78" type="1"/>
	<vehicle id="SAN Loop AS D_79" type="1"/>
	<vehicle id="SAN Loop AS D_80" type="1"/>
	<vehicle id="SAN Loop AS D_81" type="1"/>
	<vehicle id="SAN Loop AS D_82" type="1"/>
	<vehicle id="SAN Loop AS D_83" type="1"/>
	<vehicle id="SAN Loop AS D_84" type="1"/>
	<vehicle id="SAN Loop AS D_85" type="1"/>
	<vehicle id="SAN Loop AS D_86" type="1"/>
	<vehicle id="SAN Loop AS D_87" type="1"/>
	<vehicle id="SAN Loop AS D_88" type="1"/>
	<vehicle id="SAN Loop AS D_89" type="1"/>
	<vehicle id="SAN Loop AS D_90" type="1"/>
	<vehicle id="SAN Loop AS D_91" type="1"/>
	<vehicle id="SAN Loop AS D_92" type="1"/>
	<vehicle id="SAN Loop AS D_93" type="1"/>
	<vehicle id="SAN Loop AS D_94" type="1"/>
	<vehicle id="SMO Loop AS C_0" type="1"/>
	<vehicle id="SMO Loop AS C_1" type="1"/>
	<vehicle id="SMO Loop AS C_2" type="1"/>
	<vehicle id="SMO Loop AS C_3" type="1"/>
	<vehicle id="SMO Loop AS C_4" type="1"/>
	<vehicle id="SMO Loop AS C_5" type="1"/>
	<vehicle id="SMO Loop AS C_6" type="1"/>
	<vehicle id="SMO Loop AS C_7" type="1"/>
	<vehicle id="SMO Loop AS C_8" type="1"/>
	<vehicle id="SMO Loop AS C_9" type="1"/>
	<vehicle id="SMO Loop AS C_10" type="1"/>
	<vehicle id="SMO Loop AS C_11" type="1"/>
	<vehicle id="SMO Loop AS C_12" type="1"/>
	<vehicle id="SMO Loop AS C_13" type="1"/>
	<vehicle id="SMO Loop AS C_14" type="1"/>
	<vehicle id="SMO Loop AS C_15" type="1"/>
	<vehicle id="SMO Loop AS C_16" type="1"/>
	<vehicle id="SMO Loop AS C_17" type="1"/>
	<vehicle id="SMO Loop AS C_18" type="1"/>
	<vehicle id="SMO Loop AS C_19" type="1"/>
	<vehicle id="SMO Loop AS C_20" type="1"/>
	<vehicle id="SMO Loop AS C_21" type="1"/>
	<vehicle id="SMO Loop AS C_22" type="1"/>
	<vehicle id="SMO Loop AS C_23" type="1"/>
	<vehicle id="SMO Loop AS C_24" type="1"/>
	<vehicle id="SMO Loop AS C_25" type="1"/>
	<vehicle id="SMO Loop AS C_26" type="1"/>
	<vehicle id="SMO Loop AS C_27" type="1"/>
	<vehicle id="SMO Loop AS C_28" type="1"/>
	<vehicle id="SMO Loop AS C_29" type="1"/>
	<vehicle id="SMO Loop AS C_30" type="1"/>
	<vehicle id="SMO Loop AS C_31" type="1"/>
	<vehicle id="SMO Loop AS C_32" type="1"/>
	<vehicle id="SMO Loop AS C_33" type="1"/>
	<vehicle id="SMO Loop AS C_34" type="1"/>
	<vehicle id="SMO Loop AS C_35" type="1"/>
	<vehicle id="SMO Loop AS C_36" type="1"/>
	<vehicle id="SMO Loop AS C_37" type="1"/>
	<vehicle id="SMO Loop AS C_38" type="1"/>
	<vehicle id="SMO Loop AS C_39" type="1"/>
	<vehicle id="SMO Loop AS C_40" type="1"/>
	<vehicle id="SMO Loop AS C_41" type="1"/>
	<vehicle id="SMO Loop AS C_42" type="1"/>
	<vehicle id="SMO Loop AS C_43" type="1"/>
	<vehicle id="SMO Loop AS C_44" type="1"/>
	<vehicle id="SMO Loop AS C_45" type="1"/>
	<vehicle id="SMO Loop AS C_46" type="1"/>
	<vehicle id="SMO Loop AS C_47" type="1"/>
	<vehicle id="SMO Loop AS C_48" type="1"/>
	<vehicle id="SMO Loop AS C_49" type="1"/>
	<vehicle id="SMO Loop AS C_50" type="1"/>
	<vehicle id="SMO Loop AS C_51" type="1"/>
	<vehicle id="SMO Loop AS C_52" type="1"/>
	<vehicle id="SMO Loop AS C_53" type="1"/>
	<vehicle id="SMO Loop AS C_54" type="1"/>
	<vehicle id="SMO Loop AS C_55" type="1"/>
	<vehicle id="SMO Loop AS C_56" type="1"/>
	<vehicle id="SMO Loop AS C_57" type="1"/>
	<vehicle id="SMO Loop AS C_58" type="1"/>
	<vehicle id="SMO Loop AS C_59" type="1"/>
	<vehicle id="SMO Loop AS C_60" type="1"/>
	<vehicle id="SMO Loop AS C_61" type="1"/>
	<vehicle id="SMO Loop AS C_62" type="1"/>
	<vehicle id="SMO Loop AS C_63" type="1"/>
	<vehicle id="SMO Loop AS C_64" type="1"/>
	<vehicle id="SMO Loop AS C_65" type="1"/>
	<vehicle id="SMO Loop AS C_66" type="1"/>
	<vehicle id="SMO Loop AS C_67" type="1"/>
	<vehicle id="SMO Loop AS C_68" type="1"/>
	<vehicle id="SMO Loop AS C_69" type="1"/>
	<vehicle id="SMO Loop AS C_70" type="1"/>
	<vehicle id="SMO Loop AS C_71" type="1"/>
	<vehicle id="SMO Loop AS C_72" type="1"/>
	<vehicle id="SMO Loop AS C_73" type="1"/>
	<vehicle id="SMO Loop AS C_74" type="1"/>
	<vehicle id="SMO Loop AS C_75" type="1"/>
	<vehicle id="SMO Loop AS C_76" type="1"/>
	<vehicle id="SMO Loop AS C_77" type="1"/>
	<vehicle id="SMO Loop AS C_78" type="1"/>
	<vehicle id="SMO Loop AS C_79" type="1"/>
	<vehicle id="SMO Loop AS C_80" type="1"/>
	<vehicle id="SMO Loop AS C_81" type="1"/>
	<vehicle id="SMO Loop AS C_82" type="1"/>
	<vehicle id="SMO Loop AS C_83" type="1"/>
	<vehicle id="SMO Loop AS C_84" type="1"/>
	<vehicle id="SMO Loop AS C_85" type="1"/>
	<vehicle id="SPT-E-mjp-1.1.H_0" type="1"/>
	<vehicle id="SPT-E-mjp-1.1.H_1" type="1"/>
	<vehicle id="SPT-E-mjp-1.1.H_2" type="1"/>
	<vehicle id="SPT-E-mjp-1.1.H_3" type="1"/>
	<vehicle id="SPT-E-mjp-1.1.H_4" type="1"/>
	<vehicle id="SPT-E-mjp-1.1.H_5" type="1"/>
	<vehicle id="SPT-E-mjp-1.1.H_6" type="1"/>
	<vehicle id="SPT-E-mjp-1.1.H_7" type="1"/>
	<vehicle id="SPT-E-mjp-1.1.H_8" type="1"/>
	<vehicle id="SPT-E-mjp-1.1.H_9" type="1"/>
	<vehicle id="SPT-E-mjp-1.1.H_10" type="1"/>
	<vehicle id="SPT-E-mjp-1.1.H_11" type="1"/>
	<vehicle id="SPT-E-mjp-1.1.H_12" type="1"/>
	<vehicle id="SPT-E-mjp-1.1.H_13" type="1"/>
	<vehicle id="SPT-E-mjp-1.1.H_14" type="1"/>
	<vehicle id="SPT-E-mjp-1.1.H_15" type="1"/>
	<vehicle id="SPT-E-mjp-1.1.H_16" type="1"/>
	<vehicle id="SPT-E-mjp-1.1.H_17" type="1"/>
	<vehicle id="SPT-E-mjp-1.1.H_18" type="1"/>
	<vehicle id="SPT-E-mjp-1.2.R_0" type="1"/>
	<vehicle id="SPT-E-mjp-1.2.R_1" type="1"/>
	<vehicle id="SPT-E-mjp-1.2.R_2" type="1"/>
	<vehicle id="SPT-E-mjp-1.2.R_3" type="1"/>
	<vehicle id="SPT-E-mjp-1.2.R_4" type="1"/>
	<vehicle id="SPT-E-mjp-1.2.R_5" type="1"/>
	<vehicle id="SPT-E-mjp-1.2.R_6" type="1"/>
	<vehicle id="SPT-E-mjp-1.2.R_7" type="1"/>
	<vehicle id="SPT-E-mjp-1.2.R_8" type="1"/>
	<vehicle id="SPT-E-mjp-1.2.R_9" type="1"/>
	<vehicle id="SPT-E-mjp-1.2.R_10" type="1"/>
	<vehicle id="SPT-E-mjp-1.2.R_11" type="1"/>
	<vehicle id="SPT-E-mjp-1.2.R_12" type="1"/>
	<vehicle id="SPT-E-mjp-1.2.R_13" type="1"/>
	<vehicle id="SPT-E-mjp-1.2.R_14" type="1"/>
	<vehicle id="SPT-E-mjp-1.2.R_15" type="1"/>
	<vehicle id="SPT-E-mjp-1.2.R_16" type="1"/>
	<vehicle id="SUN Loop EX C_0" type="1"/>
	<vehicle id="SUN Loop EX C_1" type="1"/>
	<vehicle id="SUN Loop EX C_2" type="1"/>
	<vehicle id="SUN Loop EX C_3" type="1"/>
	<vehicle id="SUN Loop EX C_4" type="1"/>
	<vehicle id="SUN Loop EX C_5" type="1"/>
	<vehicle id="SUN Loop EX C_6" type="1"/>
	<vehicle id="SUN Loop EX C_7" type="1"/>
	<vehicle id="SUN Loop EX C_8" type="1"/>
	<vehicle id="SUN Loop EX C_9" type="1"/>
	<vehicle id="SUN Loop EX C_10" type="1"/>
	<vehicle id="SUN Loop EX C_11" type="1"/>
	<vehicle id="SUN Loop EX C_12" type="1"/>
	<vehicle id="SUN Loop EX C_13" type="1"/>
	<vehicle id="SUN Loop EX C_14" type="1"/>
	<vehicle id="SUN Loop EX C_15" type="1"/>
	<vehicle id="SUN Loop EX C_16" type="1"/>
	<vehicle id="SUN Loop EX C_17" type="1"/>
	<vehicle id="SUN Loop EX C_18" type="1"/>
	<vehicle id="SUN Loop EX C_19" type="1"/>
	<vehicle id="SUN Loop EX C_20" type="1"/>
	<vehicle id="SUN Loop EX C_21" type="1"/>
	<vehicle id="SUN Loop EX C_22" type="1"/>
	<vehicle id="SUN Loop EX C_23" type="1"/>
	<vehicle id="SUN Loop EX C_24" type="1"/>
	<vehicle id="SUN Loop EX C_25" type="1"/>
	<vehicle id="SUN Loop EX C_26" type="1"/>
	<vehicle id="SUN Loop EX C_27" type="1"/>
	<vehicle id="SUN Loop EX C_28" type="1"/>
	<vehicle id="SUN Loop EX C_29" type="1"/>
	<vehicle id="SUN Loop EX C_30" type="1"/>
	<vehicle id="SUN Loop EX C_31" type="1"/>
	<vehicle id="SUN Loop EX C_32" type="1"/>
	<vehicle id="SUN Loop EX C_33" type="1"/>
	<vehicle id="SUN Loop EX C_34" type="1"/>
	<vehicle id="SUN Loop EX C_35" type="1"/>
	<vehicle id="SUN Loop EX C_36" type="1"/>
	<vehicle id="SUN Loop EX C_37" type="1"/>
	<vehicle id="SUN Loop EX C_38" type="1"/>
	<vehicle id="SUN Loop EX C_39" type="1"/>
	<vehicle id="SUN Loop EX C_40" type="1"/>
	<vehicle id="SUN Loop EX C_41" type="1"/>
	<vehicle id="SUN Loop EX C_42" type="1"/>
	<vehicle id="SUN Loop EX C_43" type="1"/>
	<vehicle id="SUN Loop EX C_44" type="1"/>
	<vehicle id="SUN Loop EX C_45" type="1"/>
	<vehicle id="SUN Loop EX C_46" type="1"/>
	<vehicle id="SUN Loop EX C_47" type="1"/>
	<vehicle id="SUN Loop EX C_48" type="1"/>
	<vehicle id="SUN Loop EX C_49" type="1"/>
	<vehicle id="SUN Loop EX C_50" type="1"/>
	<vehicle id="SUN Loop EX C_51" type="1"/>
	<vehicle id="SUN Loop EX C_52" type="1"/>
	<vehicle id="SUN Loop EX C_53" type="1"/>
	<vehicle id="SUN Loop EX C_54" type="1"/>
	<vehicle id="WGD Loop AS C_0" type="1"/>
	<vehicle id="WGD Loop AS C_1" type="1"/>
	<vehicle id="WGD Loop AS C_2" type="1"/>
	<vehicle id="WGD Loop AS C_3" type="1"/>
	<vehicle id="WGD Loop AS C_4" type="1"/>
	<vehicle id="WGD Loop AS C_5" type="1"/>
	<vehicle id="WGD Loop AS C_6" type="1"/>
	<vehicle id="WGD Loop AS C_7" type="1"/>
	<vehicle id="WGD Loop AS C_8" type="1"/>
	<vehicle id="WGD Loop AS C_9" type="1"/>
	<vehicle id="WGD Loop AS C_10" type="1"/>
	<vehicle id="WGD Loop AS C_11" type="1"/>
	<vehicle id="WGD Loop AS C_12" type="1"/>
	<vehicle id="WGD Loop AS C_13" type="1"/>
	<vehicle id="WGD Loop AS C_14" type="1"/>
	<vehicle id="WGD Loop AS C_15" type="1"/>
	<vehicle id="WGD Loop AS C_16" type="1"/>
	<vehicle id="WGD Loop AS C_17" type="1"/>
	<vehicle id="WGD Loop AS C_18" type="1"/>
	<vehicle id="WGD Loop AS C_19" type="1"/>
	<vehicle id="WGD Loop AS C_20" type="1"/>
	<vehicle id="WGD Loop AS C_21" type="1"/>
	<vehicle id="WGD Loop AS C_22" type="1"/>
	<vehicle id="WGD Loop AS C_23" type="1"/>
	<vehicle id="WGD Loop AS C_24" type="1"/>
	<vehicle id="WGD Loop AS C_25" type="1"/>
	<vehicle id="WGD Loop AS C_26" type="1"/>
	<vehicle id="WGD Loop AS C_27" type="1"/>
	<vehicle id="WGD Loop AS C_28" type="1"/>
	<vehicle id="WGD Loop AS C_29" type="1"/>
	<vehicle id="WGD Loop AS C_30" type="1"/>
	<vehicle id="WGD Loop AS C_31" type="1"/>
	<vehicle id="WGD Loop AS C_32" type="1"/>
	<vehicle id="WGD Loop AS C_33" type="1"/>
	<vehicle id="WGD Loop AS C_34" type="1"/>
	<vehicle id="WGD Loop AS C_35" type="1"/>
	<vehicle id="WGD Loop AS C_36" type="1"/>
	<vehicle id="WGD Loop AS C_37" type="1"/>
	<vehicle id="WGD Loop AS C_38" type="1"/>
	<vehicle id="WGD Loop AS C_39" type="1"/>
	<vehicle id="WGD Loop AS C_40" type="1"/>
	<vehicle id="WGD Loop AS C_41" type="1"/>
	<vehicle id="WGD Loop AS C_42" type="1"/>
	<vehicle id="WGD Loop AS C_43" type="1"/>
	<vehicle id="WGD Loop AS C_44" type="1"/>
	<vehicle id="WGD Loop AS C_45" type="1"/>
	<vehicle id="WGD Loop AS C_46" type="1"/>
	<vehicle id="WGD Loop AS C_47" type="1"/>
	<vehicle id="WGD Loop AS C_48" type="1"/>
	<vehicle id="WGD Loop AS C_49" type="1"/>
	<vehicle id="WGD Loop AS C_50" type="1"/>
	<vehicle id="WGD Loop AS C_51" type="1"/>
	<vehicle id="WGD Loop AS C_52" type="1"/>
	<vehicle id="WGD Loop AS C_53" type="1"/>
	<vehicle id="WGD Loop AS C_54" type="1"/>
	<vehicle id="WGD Loop AS C_55" type="1"/>
	<vehicle id="WGD Loop AS C_56" type="1"/>
	<vehicle id="WGD Loop AS C_57" type="1"/>
	<vehicle id="WGD Loop AS C_58" type="1"/>
	<vehicle id="WGD Loop AS C_59" type="1"/>
	<vehicle id="WGD Loop AS C_60" type="1"/>
	<vehicle id="WGD Loop AS C_61" type="1"/>
	<vehicle id="WGD Loop AS C_62" type="1"/>
	<vehicle id="WGD Loop AS C_63" type="1"/>
	<vehicle id="WGD Loop AS C_64" type="1"/>
	<vehicle id="WGD Loop AS C_65" type="1"/>
	<vehicle id="WGD Loop AS C_66" type="1"/>
	<vehicle id="WGD Loop AS C_67" type="1"/>
	<vehicle id="WGD Loop AS C_68" type="1"/>
	<vehicle id="WGD Loop AS C_69" type="1"/>
	<vehicle id="WGD Loop AS C_70" type="1"/>
	<vehicle id="WGD Loop AS C_71" type="1"/>
	<vehicle id="WGD Loop AS C_72" type="1"/>
	<vehicle id="WGD Loop AS C_73" type="1"/>
	<vehicle id="UPF Loop AS C_0" type="1"/>
	<vehicle id="UPF Loop AS C_1" type="1"/>
	<vehicle id="UPF Loop AS C_2" type="1"/>
	<vehicle id="UPF Loop AS C_3" type="1"/>
	<vehicle id="UPF Loop AS C_4" type="1"/>
	<vehicle id="UPF Loop AS C_5" type="1"/>
	<vehicle id="UPF Loop AS C_6" type="1"/>
	<vehicle id="UPF Loop AS C_7" type="1"/>
	<vehicle id="UPF Loop AS C_8" type="1"/>
	<vehicle id="UPF Loop AS C_9" type="1"/>
	<vehicle id="UPF Loop AS C_10" type="1"/>
	<vehicle id="UPF Loop AS C_11" type="1"/>
	<vehicle id="UPF Loop AS C_12" type="1"/>
	<vehicle id="UPF Loop AS C_13" type="1"/>
	<vehicle id="UPF Loop AS C_14" type="1"/>
	<vehicle id="UPF Loop AS C_15" type="1"/>
	<vehicle id="UPF Loop AS C_16" type="1"/>
	<vehicle id="UPF Loop AS C_17" type="1"/>
	<vehicle id="UPF Loop AS C_18" type="1"/>
	<vehicle id="UPF Loop AS C_19" type="1"/>
	<vehicle id="UPF Loop AS C_20" type="1"/>
	<vehicle id="UPF Loop AS C_21" type="1"/>
	<vehicle id="UPF Loop AS C_22" type="1"/>
	<vehicle id="UPF Loop AS C_23" type="1"/>
	<vehicle id="UPF Loop AS C_24" type="1"/>
	<vehicle id="UPF Loop AS C_25" type="1"/>
	<vehicle id="UPF Loop AS C_26" type="1"/>
	<vehicle id="UPF Loop AS C_27" type="1"/>
	<vehicle id="UPF Loop AS C_28" type="1"/>
	<vehicle id="UPF Loop AS C_29" type="1"/>
	<vehicle id="UPF Loop AS C_30" type="1"/>
	<vehicle id="UPF Loop AS C_31" type="1"/>
	<vehicle id="UPF Loop AS C_32" type="1"/>
	<vehicle id="UPF Loop AS C_33" type="1"/>
	<vehicle id="UPF Loop AS C_34" type="1"/>
	<vehicle id="UPF Loop AS C_35" type="1"/>
	<vehicle id="UPF Loop AS C_36" type="1"/>
	<vehicle id="UPF Loop AS C_37" type="1"/>
	<vehicle id="UPF Loop AS C_38" type="1"/>
	<vehicle id="UPF Loop AS C_39" type="1"/>
	<vehicle id="UPF Loop AS C_40" type="1"/>
	<vehicle id="UPF Loop AS C_41" type="1"/>
	<vehicle id="UPF Loop AS C_42" type="1"/>
	<vehicle id="UPF Loop AS C_43" type="1"/>
	<vehicle id="UPF Loop AS C_44" type="1"/>
	<vehicle id="UPF Loop AS C_45" type="1"/>
	<vehicle id="UPF Loop AS C_46" type="1"/>
	<vehicle id="UPF Loop AS C_47" type="1"/>
	<vehicle id="UPF Loop AS C_48" type="1"/>
	<vehicle id="UPF Loop AS C_49" type="1"/>
	<vehicle id="UPF Loop AS C_50" type="1"/>
	<vehicle id="UPF Loop AS C_51" type="1"/>
	<vehicle id="UPF Loop AS C_52" type="1"/>
	<vehicle id="UPF Loop AS C_53" type="1"/>
	<vehicle id="UPF Loop AS C_54" type="1"/>
	<vehicle id="UPF Loop AS C_55" type="1"/>
	<vehicle id="UPF Loop AS C_56" type="1"/>
	<vehicle id="UPF Loop AS C_57" type="1"/>
	<vehicle id="UPF Loop AS C_58" type="1"/>
	<vehicle id="UPF Loop AS C_59" type="1"/>
	<vehicle id="WRB Loop EX D_0" type="1"/>
	<vehicle id="WRB Loop EX D_1" type="1"/>
	<vehicle id="WRB Loop EX D_2" type="1"/>
	<vehicle id="WRB Loop EX D_3" type="1"/>
	<vehicle id="WRB Loop EX D_4" type="1"/>
	<vehicle id="WRB Loop EX D_5" type="1"/>
	<vehicle id="WRB Loop EX D_6" type="1"/>
	<vehicle id="WRB Loop EX D_7" type="1"/>
	<vehicle id="WRB Loop EX D_8" type="1"/>
	<vehicle id="WRB Loop EX D_9" type="1"/>
	<vehicle id="WRB Loop EX D_10" type="1"/>
	<vehicle id="WRB Loop EX D_11" type="1"/>
	<vehicle id="WRB Loop EX D_12" type="1"/>
	<vehicle id="WRB Loop EX D_13" type="1"/>
	<vehicle id="WRB Loop EX D_14" type="1"/>
	<vehicle id="WRB Loop EX D_15" type="1"/>
	<vehicle id="WRB Loop EX D_16" type="1"/>
	<vehicle id="WRB Loop EX D_17" type="1"/>
	<vehicle id="WRB Loop EX D_18" type="1"/>
	<vehicle id="WRB Loop EX D_19" type="1"/>
	<vehicle id="WRB Loop EX D_20" type="1"/>
	<vehicle id="WRB Loop EX D_21" type="1"/>
	<vehicle id="WRB Loop EX D_22" type="1"/>
	<vehicle id="WRB Loop EX D_23" type="1"/>
	<vehicle id="WRB Loop EX D_24" type="1"/>
	<vehicle id="WRB Loop EX D_25" type="1"/>
	<vehicle id="WRB Loop EX D_26" type="1"/>
	<vehicle id="WRB Loop EX D_27" type="1"/>
	<vehicle id="WRB Loop EX D_28" type="1"/>
	<vehicle id="WRB Loop EX D_29" type="1"/>
	<vehicle id="WRB Loop EX D_30" type="1"/>
	<vehicle id="WRB Loop EX D_31" type="1"/>
	<vehicle id="WRB Loop EX D_32" type="1"/>
	<vehicle id="WRB Loop EX D_33" type="1"/>
	<vehicle id="WRB Loop EX D_34" type="1"/>
	<vehicle id="WRB Loop EX D_35" type="1"/>
	<vehicle id="WRB Loop EX D_36" type="1"/>
	<vehicle id="WRB Loop EX D_37" type="1"/>
	<vehicle id="WRB Loop EX D_38" type="1"/>
	<vehicle id="WRB Loop EX D_39" type="1"/>
	<vehicle id="WRB Loop EX D_40" type="1"/>
	<vehicle id="WRB Loop EX D_41" type="1"/>
	<vehicle id="WRB Loop EX D_42" type="1"/>
	<vehicle id="WRB Loop EX D_43" type="1"/>
	<vehicle id="WRB Loop EX D_44" type="1"/>
	<vehicle id="WRB Loop EX D_45" type="1"/>
	<vehicle id="WRB Loop EX D_46" type="1"/>
	<vehicle id="WRB Loop EX D_47" type="1"/>
	<vehicle id="WRB Loop EX D_48" type="1"/>
	<vehicle id="WRB Loop EX D_49" type="1"/>
	<vehicle id="WRB Loop EX D_50" type="1"/>
	<vehicle id="WRB Loop EX D_51" type="1"/>
	<vehicle id="WRB Loop EX D_52" type="1"/>
	<vehicle id="WRB Loop EX D_53" type="1"/>
	<vehicle id="WRB Loop EX D_54" type="1"/>
	<vehicle id="WRB Loop EX D_55" type="1"/>
	<vehicle id="WRB Loop EX D_56" type="1"/>
	<vehicle id="WRB Loop EX D_57" type="1"/>
	<vehicle id="WRB Loop EX D_58" type="1"/>
	<vehicle id="WRB Loop EX D_59" type="1"/>
	<vehicle id="WRB Loop EX D_60" type="1"/>
	<vehicle id="WRB Loop EX D_61" type="1"/>
	<vehicle id="WRB Loop EX D_62" type="1"/>
	<vehicle id="WRB Loop EX D_63" type="1"/>
	<vehicle id="WRB Loop EX D_64" type="1"/>
	<vehicle id="WRB Loop EX D_65" type="1"/>
	<vehicle id="WRB Loop EX D_66" type="1"/>
	<vehicle id="WRB Loop EX D_67" type="1"/>
	<vehicle id="WRB Loop EX D_68" type="1"/>
	<vehicle id="WRB Loop EX D_69" type="1"/>
	<vehicle id="WRB Loop EX D_70" type="1"/>
	<vehicle id="WRB Loop EX D_71" type="1"/>
	<vehicle id="WRB Loop EX D_72" type="1"/>
	<vehicle id="WRB Loop EX D_73" type="1"/>
	<vehicle id="WRB Loop EX D_74" type="1"/>
	<vehicle id="WRB Loop EX D_75" type="1"/>
	<vehicle id="WRB Loop EX D_76" type="1"/>
	<vehicle id="LVT Loop AS D_0" type="1"/>
	<vehicle id="LVT Loop AS D_1" type="1"/>
	<vehicle id="LVT Loop AS D_2" type="1"/>
	<vehicle id="LVT Loop AS D_3" type="1"/>
	<vehicle id="LVT Loop AS D_4" type="1"/>
	<vehicle id="LVT Loop AS D_5" type="1"/>
	<vehicle id="LVT Loop AS D_6" type="1"/>
	<vehicle id="LVT Loop AS D_7" type="1"/>
	<vehicle id="LVT Loop AS D_8" type="1"/>
	<vehicle id="LVT Loop AS D_9" type="1"/>
	<vehicle id="LVT Loop AS D_10" type="1"/>
	<vehicle id="LVT Loop AS D_11" type="1"/>
	<vehicle id="LVT Loop AS D_12" type="1"/>
	<vehicle id="LVT Loop AS D_13" type="1"/>
	<vehicle id="LVT Loop AS D_14" type="1"/>
	<vehicle id="LVT Loop AS D_15" type="1"/>
	<vehicle id="LVT Loop AS D_16" type="1"/>
	<vehicle id="LVT Loop AS D_17" type="1"/>
	<vehicle id="LVT Loop AS D_18" type="1"/>
	<vehicle id="LVT Loop AS D_19" type="1"/>
	<vehicle id="LVT Loop AS D_20" type="1"/>
	<vehicle id="LVT Loop AS D_21" type="1"/>
	<vehicle id="LVT Loop AS D_22" type="1"/>
	<vehicle id="LVT Loop AS D_23" type="1"/>
	<vehicle id="LVT Loop AS D_24" type="1"/>
	<vehicle id="LVT Loop AS D_25" type="1"/>
	<vehicle id="LVT Loop AS D_26" type="1"/>
	<vehicle id="LVT Loop AS D_27" type="1"/>
	<vehicle id="LVT Loop AS D_28" type="1"/>
	<vehicle id="LVT Loop AS D_29" type="1"/>
	<vehicle id="LVT Loop AS D_30" type="1"/>
	<vehicle id="LVT Loop AS D_31" type="1"/>
	<vehicle id="LVT Loop AS D_32" type="1"/>
	<vehicle id="LVT Loop AS D_33" type="1"/>
	<vehicle id="LVT Loop AS D_34" type="1"/>
	<vehicle id="LVT Loop AS D_35" type="1"/>
	<vehicle id="LVT Loop AS D_36" type="1"/>
	<vehicle id="LVT Loop AS D_37" type="1"/>
	<vehicle id="LVT Loop AS D_38" type="1"/>
	<vehicle id="LVT Loop AS D_39" type="1"/>
	<vehicle id="LVT Loop AS D_40" type="1"/>
	<vehicle id="LVT Loop AS D_41" type="1"/>
	<vehicle id="LVT Loop AS D_42" type="1"/>
	<vehicle id="LVT Loop AS D_43" type="1"/>
	<vehicle id="LVT Loop AS D_44" type="1"/>
	<vehicle id="LVT Loop AS D_45" type="1"/>
	<vehicle id="LVT Loop AS D_46" type="1"/>
	<vehicle id="LVT Loop AS D_47" type="1"/>
	<vehicle id="LVT Loop AS D_48" type="1"/>
	<vehicle id="LVT Loop AS D_49" type="1"/>
	<vehicle id="LVT Loop AS D_50" type="1"/>
	<vehicle id="LVT Loop AS D_51" type="1"/>
	<vehicle id="LVT Loop AS D_52" type="1"/>
	<vehicle id="LVT Loop AS D_53" type="1"/>
	<vehicle id="LVT Loop AS D_54" type="1"/>
	<vehicle id="LVT Loop AS D_55" type="1"/>
	<vehicle id="LVT Loop AS D_56" type="1"/>
	<vehicle id="LVT Loop AS D_57" type="1"/>
	<vehicle id="LVT Loop AS D_58" type="1"/>
	<vehicle id="LVT Loop AS D_59" type="1"/>
	<vehicle id="LVT Loop AS D_60" type="1"/>
	<vehicle id="LVT Loop AS D_61" type="1"/>
	<vehicle id="LVT Loop AS D_62" type="1"/>
	<vehicle id="LVT Loop AS D_63" type="1"/>
	<vehicle id="LVT Loop AS D_64" type="1"/>
	<vehicle id="LVT Loop AS D_65" type="1"/>
	<vehicle id="LVT Loop AS D_66" type="1"/>
	<vehicle id="LVT Loop AS D_67" type="1"/>
	<vehicle id="LVT Loop AS D_68" type="1"/>
	<vehicle id="LVT Loop AS D_69" type="1"/>
	<vehicle id="LVT Loop AS D_70" type="1"/>
	<vehicle id="LVT Loop AS D_71" type="1"/>
	<vehicle id="LVT Loop AS D_72" type="1"/>
	<vehicle id="LVT Loop AS D_73" type="1"/>
	<vehicle id="LVT Loop AS D_74" type="1"/>
	<vehicle id="LVT Loop AS D_75" type="1"/>
	<vehicle id="LVT Loop AS D_76" type="1"/>
	<vehicle id="LVT Loop AS D_77" type="1"/>
	<vehicle id="LVT Loop AS D_78" type="1"/>
	<vehicle id="LVT Loop AS D_79" type="1"/>
	<vehicle id="LVT Loop AS D_80" type="1"/>
	<vehicle id="LVT Loop AS D_81" type="1"/>
	<vehicle id="LVT Loop AS D_82" type="1"/>
	<vehicle id="LVT Loop AS D_83" type="1"/>
	<vehicle id="LVT Loop AS D_84" type="1"/>
	<vehicle id="LVT Loop AS D_85" type="1"/>
	<vehicle id="LVT Loop AS D_86" type="1"/>
	<vehicle id="LVT Loop AS D_87" type="1"/>
	<vehicle id="LVT Loop AS D_88" type="1"/>
	<vehicle id="LVT Loop AS D_89" type="1"/>
	<vehicle id="LVT Loop AS D_90" type="1"/>
	<vehicle id="LVT Loop AS D_91" type="1"/>
	<vehicle id="LVT Loop AS D_92" type="1"/>
	<vehicle id="LVT Loop AS D_93" type="1"/>
	<vehicle id="LVT Loop AS D_94" type="1"/>
	<vehicle id="LVT Loop AS D_95" type="1"/>
	<vehicle id="LVT Loop AS D_96" type="1"/>
	<vehicle id="LVT Loop AS D_97" type="1"/>
	<vehicle id="LVT Loop AS D_98" type="1"/>
	<vehicle id="LVT Loop AS D_99" type="1"/>
	<vehicle id="LVT Loop AS D_100" type="1"/>
	<vehicle id="LVT Loop AS D_101" type="1"/>
	<vehicle id="WIL Loop AS D_0" type="1"/>
	<vehicle id="WIL Loop AS D_1" type="1"/>
	<vehicle id="WIL Loop AS D_2" type="1"/>
	<vehicle id="WIL Loop AS D_3" type="1"/>
	<vehicle id="WIL Loop AS D_4" type="1"/>
	<vehicle id="WIL Loop AS D_5" type="1"/>
	<vehicle id="WIL Loop AS D_6" type="1"/>
	<vehicle id="WIL Loop AS D_7" type="1"/>
	<vehicle id="WIL Loop AS D_8" type="1"/>
	<vehicle id="WIL Loop AS D_9" type="1"/>
	<vehicle id="WIL Loop AS D_10" type="1"/>
	<vehicle id="WIL Loop AS D_11" type="1"/>
	<vehicle id="WIL Loop AS D_12" type="1"/>
	<vehicle id="WIL Loop AS D_13" type="1"/>
	<vehicle id="WIL Loop AS D_14" type="1"/>
	<vehicle id="WIL Loop AS D_15" type="1"/>
	<vehicle id="WIL Loop AS D_16" type="1"/>
	<vehicle id="WIL Loop AS D_17" type="1"/>
	<vehicle id="WIL Loop AS D_18" type="1"/>
	<vehicle id="WIL Loop AS D_19" type="1"/>
	<vehicle id="WIL Loop AS D_20" type="1"/>
	<vehicle id="WIL Loop AS D_21" type="1"/>
	<vehicle id="WIL Loop AS D_22" type="1"/>
	<vehicle id="WIL Loop AS D_23" type="1"/>
	<vehicle id="WIL Loop AS D_24" type="1"/>
	<vehicle id="WIL Loop AS D_25" type="1"/>
	<vehicle id="WIL Loop AS D_26" type="1"/>
	<vehicle id="WIL Loop AS D_27" type="1"/>
	<vehicle id="WIL Loop AS D_28" type="1"/>
	<vehicle id="WIL Loop AS D_29" type="1"/>
	<vehicle id="WIL Loop AS D_30" type="1"/>
	<vehicle id="WIL Loop AS D_31" type="1"/>
	<vehicle id="WIL Loop AS D_32" type="1"/>
	<vehicle id="WIL Loop AS D_33" type="1"/>
	<vehicle id="WIL Loop AS D_34" type="1"/>
	<vehicle id="WIL Loop AS D_35" type="1"/>
	<vehicle id="WIL Loop AS D_36" type="1"/>
	<vehicle id="WIL Loop AS D_37" type="1"/>
	<vehicle id="WIL Loop AS D_38" type="1"/>
	<vehicle id="WIL Loop AS D_39" type="1"/>
	<vehicle id="WIL Loop AS D_40" type="1"/>
	<vehicle id="WIL Loop AS D_41" type="1"/>
	<vehicle id="WIL Loop AS D_42" type="1"/>
	<vehicle id="WIL Loop AS D_43" type="1"/>
	<vehicle id="WIL Loop AS D_44" type="1"/>
	<vehicle id="WIL Loop AS D_45" type="1"/>
	<vehicle id="WIL Loop AS D_46" type="1"/>
	<vehicle id="WIL Loop AS D_47" type="1"/>
	<vehicle id="WIL Loop AS D_48" type="1"/>
	<vehicle id="WIL Loop AS D_49" type="1"/>
	<vehicle id="WIL Loop AS D_50" type="1"/>
	<vehicle id="WIL Loop AS D_51" type="1"/>
	<vehicle id="WIL Loop AS D_52" type="1"/>
	<vehicle id="WIL Loop AS D_53" type="1"/>
	<vehicle id="WIL Loop AS D_54" type="1"/>
	<vehicle id="WIL Loop AS D_55" type="1"/>
	<vehicle id="WIL Loop AS D_56" type="1"/>
	<vehicle id="WIL Loop AS D_57" type="1"/>
	<vehicle id="WIL Loop AS D_58" type="1"/>
	<vehicle id="1_0" type="26"/>
	<vehicle id="1_1" type="26"/>
	<vehicle id="1_2" type="26"/>
	<vehicle id="1_3" type="26"/>
	<vehicle id="1_4" type="26"/>
	<vehicle id="1_5" type="26"/>
	<vehicle id="1_6" type="26"/>
	<vehicle id="1_7" type="26"/>
	<vehicle id="1_8" type="26"/>
	<vehicle id="1_9" type="26"/>
	<vehicle id="1_10" type="26"/>
	<vehicle id="1_11" type="26"/>
[...]
	<vehicle id="V23-F-mjp-1.17.H_1" type="41"/>
	<vehicle id="V23-F-mjp-1.17.H_2" type="41"/>
	<vehicle id="V23-F-mjp-1.17.H_3" type="41"/>
	<vehicle id="V23-F-mjp-1.17.H_4" type="41"/>
	<vehicle id="V23-F-mjp-1.17.H_5" type="41"/>
	<vehicle id="V23-F-mjp-1.17.H_6" type="41"/>
	<vehicle id="V23-F-mjp-1.17.H_7" type="41"/>
	<vehicle id="V23-F-mjp-1.18.H_0" type="41"/>
	<vehicle id="V23-F-mjp-1.18.H_1" type="41"/>
	<vehicle id="V23-F-mjp-1.18.H_2" type="41"/>
	<vehicle id="V23-F-mjp-1.18.H_3" type="41"/>
	<vehicle id="V23-F-mjp-1.18.H_4" type="41"/>
	<vehicle id="V23-F-mjp-1.18.H_5" type="41"/>
	<vehicle id="V23-F-mjp-1.18.H_6" type="41"/>
	<vehicle id="V23-F-mjp-1.18.H_7" type="41"/>
	<vehicle id="V23-F-mjp-1.19.H_0" type="41"/>
	<vehicle id="V23-F-mjp-1.19.H_1" type="41"/>
	<vehicle id="V23-F-mjp-1.19.H_2" type="41"/>
	<vehicle id="V23-F-mjp-1.19.H_3" type="41"/>
	<vehicle id="V23-F-mjp-1.19.H_4" type="41"/>
	<vehicle id="V23-F-mjp-1.19.H_5" type="41"/>
	<vehicle id="V23-F-mjp-1.19.H_6" type="41"/>
	<vehicle id="V23-F-mjp-1.19.H_7" type="41"/>
	<vehicle id="V23-F-mjp-1.20.H_0" type="41"/>
	<vehicle id="V23-F-mjp-1.20.H_1" type="41"/>
	<vehicle id="V23-F-mjp-1.20.H_2" type="41"/>
	<vehicle id="V23-F-mjp-1.20.H_3" type="41"/>
	<vehicle id="V23-F-mjp-1.20.H_4" type="41"/>
	<vehicle id="V23-F-mjp-1.20.H_5" type="41"/>
	<vehicle id="V23-F-mjp-1.20.H_6" type="41"/>
	<vehicle id="V23-F-mjp-1.20.H_7" type="41"/>
	<vehicle id="V23-F-mjp-1.20.H_8" type="41"/>
	<vehicle id="V23-F-mjp-1.20.H_9" type="41"/>
	<vehicle id="V23-F-mjp-1.28.R_0" type="41"/>
	<vehicle id="V23-F-mjp-1.28.R_1" type="41"/>
	<vehicle id="V23-F-mjp-1.28.R_2" type="41"/>
	<vehicle id="V23-F-mjp-1.28.R_3" type="41"/>
	<vehicle id="V23-F-mjp-1.28.R_4" type="41"/>
	<vehicle id="V23-F-mjp-1.28.R_5" type="41"/>
	<vehicle id="V23-F-mjp-1.28.R_6" type="41"/>
	<vehicle id="V23-F-mjp-1.29.R_0" type="41"/>
	<vehicle id="V23-F-mjp-1.29.R_1" type="41"/>
	<vehicle id="V23-F-mjp-1.29.R_2" type="41"/>
	<vehicle id="V23-F-mjp-1.29.R_3" type="41"/>
	<vehicle id="V23-F-mjp-1.29.R_4" type="41"/>
	<vehicle id="V23-F-mjp-1.29.R_5" type="41"/>
	<vehicle id="V23-F-mjp-1.29.R_6" type="41"/>
	<vehicle id="V23-F-mjp-1.29.R_7" type="41"/>
	<vehicle id="V23-F-mjp-1.31.R_0" type="41"/>
	<vehicle id="V23-F-mjp-1.31.R_1" type="41"/>
	<vehicle id="V23-F-mjp-1.31.R_2" type="41"/>
	<vehicle id="V23-F-mjp-1.31.R_3" type="41"/>
	<vehicle id="V23-F-mjp-1.31.R_4" type="41"/>
	<vehicle id="V23-F-mjp-1.31.R_5" type="41"/>
	<vehicle id="V23-F-mjp-1.31.R_6" type="41"/>
	<vehicle id="V23-F-mjp-1.31.R_7" type="41"/>
	<vehicle id="V23-F-mjp-1.32.R_0" type="41"/>
	<vehicle id="V23-F-mjp-1.32.R_1" type="41"/>
	<vehicle id="V23-F-mjp-1.32.R_2" type="41"/>
	<vehicle id="V23-F-mjp-1.32.R_3" type="41"/>
	<vehicle id="V23-F-mjp-1.32.R_4" type="41"/>
	<vehicle id="V23-F-mjp-1.32.R_5" type="41"/>
	<vehicle id="V23-F-mjp-1.32.R_6" type="41"/>
	<vehicle id="V23-F-mjp-1.33.R_0" type="41"/>
	<vehicle id="V23-F-mjp-1.33.R_1" type="41"/>
	<vehicle id="V23-F-mjp-1.33.R_2" type="41"/>
	<vehicle id="V23-F-mjp-1.33.R_3" type="41"/>
	<vehicle id="V23-F-mjp-1.33.R_4" type="41"/>
	<vehicle id="V23-F-mjp-1.33.R_5" type="41"/>
	<vehicle id="V23-F-mjp-1.33.R_6" type="41"/>
	<vehicle id="V23-F-mjp-1.34.R_0" type="41"/>
	<vehicle id="V23-F-mjp-1.34.R_1" type="41"/>
	<vehicle id="V23-F-mjp-1.34.R_2" type="41"/>
	<vehicle id="V23-F-mjp-1.34.R_3" type="41"/>
	<vehicle id="V23-F-mjp-1.34.R_4" type="41"/>
	<vehicle id="V23-F-mjp-1.34.R_5" type="41"/>
	<vehicle id="V23-F-mjp-1.34.R_6" type="41"/>
	<vehicle id="V23-F-mjp-1.35.R_0" type="41"/>
	<vehicle id="V23-F-mjp-1.35.R_1" type="41"/>
	<vehicle id="V23-F-mjp-1.35.R_2" type="41"/>
	<vehicle id="V23-F-mjp-1.35.R_3" type="41"/>
	<vehicle id="V23-F-mjp-1.35.R_4" type="41"/>
	<vehicle id="V23-F-mjp-1.35.R_5" type="41"/>
	<vehicle id="V23-F-mjp-1.35.R_6" type="41"/>
	<vehicle id="V23-F-mjp-1.36.R_0" type="41"/>
	<vehicle id="V23-F-mjp-1.36.R_1" type="41"/>
	<vehicle id="V23-F-mjp-1.36.R_2" type="41"/>
	<vehicle id="V23-F-mjp-1.36.R_3" type="41"/>
	<vehicle id="V23-F-mjp-1.36.R_4" type="41"/>
	<vehicle id="V23-F-mjp-1.36.R_5" type="41"/>
	<vehicle id="V23-F-mjp-1.36.R_6" type="41"/>
	<vehicle id="V23-F-mjp-1.36.R_7" type="41"/>
	<vehicle id="V23-F-mjp-1.36.R_8" type="41"/>
	<vehicle id="V23-F-mjp-1.36.R_9" type="41"/>
	<vehicle id="V23-F-mjp-1.36.R_10" type="41"/>
	<vehicle id="V23-F-mjp-1.36.R_11" type="41"/>
	<vehicle id="V23-F-mjp-1.36.R_12" type="41"/>
	<vehicle id="V23-F-mjp-1.36.R_13" type="41"/>
	<vehicle id="V23-F-mjp-1.36.R_14" type="41"/>
	<vehicle id="V23-F-mjp-1.36.R_15" type="41"/>
	<vehicle id="V23-F-mjp-1.36.R_16" type="41"/>
	<vehicle id="V23-F-mjp-1.36.R_17" type="41"/>
	<vehicle id="V23-F-mjp-1.36.R_18" type="41"/>
	<vehicle id="V23-F-mjp-1.36.R_19" type="41"/>
	<vehicle id="V23-F-mjp-1.36.R_20" type="41"/>
	<vehicle id="V23-F-mjp-1.36.R_21" type="41"/>
	<vehicle id="V23-F-mjp-1.37.R_0" type="41"/>
	<vehicle id="V23-F-mjp-1.37.R_1" type="41"/>
	<vehicle id="V23-F-mjp-1.37.R_2" type="41"/>
	<vehicle id="V23-F-mjp-1.37.R_3" type="41"/>
	<vehicle id="V23-F-mjp-1.37.R_4" type="41"/>
	<vehicle id="V23-F-mjp-1.37.R_5" type="41"/>
	<vehicle id="V23-F-mjp-1.37.R_6" type="41"/>
	<vehicle id="V23-F-mjp-1.37.R_7" type="41"/>
	<vehicle id="V23-F-mjp-1.37.R_8" type="41"/>
	<vehicle id="V23-F-mjp-1.37.R_9" type="41"/>
	<vehicle id="V23-F-mjp-1.37.R_10" type="41"/>
	<vehicle id="V23-F-mjp-1.37.R_11" type="41"/>
	<vehicle id="V23-F-mjp-1.37.R_12" type="41"/>
	<vehicle id="V23-F-mjp-1.37.R_13" type="41"/>
	<vehicle id="V23-F-mjp-1.37.R_14" type="41"/>
	<vehicle id="V23-F-mjp-1.37.R_15" type="41"/>
	<vehicle id="V23-F-mjp-1.37.R_16" type="41"/>
	<vehicle id="V23-F-mjp-1.37.R_17" type="41"/>
	<vehicle id="V23-F-mjp-1.37.R_18" type="41"/>
	<vehicle id="V23-F-mjp-1.38.R_0" type="41"/>
	<vehicle id="V23-F-mjp-1.38.R_1" type="41"/>
	<vehicle id="V23-F-mjp-1.38.R_2" type="41"/>
	<vehicle id="V23-F-mjp-1.38.R_3" type="41"/>
	<vehicle id="V23-F-mjp-1.38.R_4" type="41"/>
	<vehicle id="V23-F-mjp-1.38.R_5" type="41"/>
	<vehicle id="V23-F-mjp-1.38.R_6" type="41"/>
	<vehicle id="V23-F-mjp-1.38.R_7" type="41"/>
	<vehicle id="V23-F-mjp-1.39.R_0" type="41"/>
	<vehicle id="V23-F-mjp-1.39.R_1" type="41"/>
	<vehicle id="V23-F-mjp-1.39.R_2" type="41"/>
	<vehicle id="V23-F-mjp-1.39.R_3" type="41"/>
	<vehicle id="V23-F-mjp-1.39.R_4" type="41"/>
	<vehicle id="V23-F-mjp-1.39.R_5" type="41"/>
	<vehicle id="V23-F-mjp-1.39.R_6" type="41"/>
	<vehicle id="V23-F-mjp-1.39.R_7" type="41"/>
	<vehicle id="V23-F-mjp-1.4.H_0" type="41"/>
	<vehicle id="V23-F-mjp-1.4.H_1" type="41"/>
	<vehicle id="V23-F-mjp-1.4.H_2" type="41"/>
	<vehicle id="V23-F-mjp-1.4.H_3" type="41"/>
	<vehicle id="V23-F-mjp-1.4.H_4" type="41"/>
	<vehicle id="V23-F-mjp-1.4.H_5" type="41"/>
	<vehicle id="V23-F-mjp-1.4.H_6" type="41"/>
	<vehicle id="V23-F-mjp-1.4.H_7" type="41"/>
	<vehicle id="V23-F-mjp-1.4.H_8" type="41"/>
	<vehicle id="V23-F-mjp-1.40.R_0" type="41"/>
	<vehicle id="V23-F-mjp-1.40.R_1" type="41"/>
	<vehicle id="V23-F-mjp-1.40.R_2" type="41"/>
	<vehicle id="V23-F-mjp-1.40.R_3" type="41"/>
	<vehicle id="V23-F-mjp-1.40.R_4" type="41"/>
	<vehicle id="V23-F-mjp-1.40.R_5" type="41"/>
	<vehicle id="V23-F-mjp-1.40.R_6" type="41"/>
	<vehicle id="V23-F-mjp-1.40.R_7" type="41"/>
	<vehicle id="V23-F-mjp-1.40.R_8" type="41"/>
	<vehicle id="V23-F-mjp-1.40.R_9" type="41"/>
	<vehicle id="V23-F-mjp-1.40.R_10" type="41"/>
	<vehicle id="V23-F-mjp-1.40.R_11" type="41"/>
	<vehicle id="V23-F-mjp-1.5.H_0" type="41"/>
	<vehicle id="V23-F-mjp-1.5.H_1" type="41"/>
	<vehicle id="V23-F-mjp-1.5.H_2" type="41"/>
	<vehicle id="V23-F-mjp-1.5.H_3" type="41"/>
	<vehicle id="V23-F-mjp-1.5.H_4" type="41"/>
	<vehicle id="V23-F-mjp-1.5.H_5" type="41"/>
	<vehicle id="V23-F-mjp-1.5.H_6" type="41"/>
	<vehicle id="V23-F-mjp-1.5.H_7" type="41"/>
	<vehicle id="V23-F-mjp-1.5.H_8" type="41"/>
	<vehicle id="V23-F-mjp-1.5.H_9" type="41"/>
	<vehicle id="V23-F-mjp-1.5.H_10" type="41"/>
	<vehicle id="V23-F-mjp-1.5.H_11" type="41"/>
	<vehicle id="V23-F-mjp-1.5.H_12" type="41"/>
	<vehicle id="V23-F-mjp-1.5.H_13" type="41"/>
	<vehicle id="V23-F-mjp-1.5.H_14" type="41"/>
	<vehicle id="V23-F-mjp-1.5.H_15" type="41"/>
	<vehicle id="V23-F-mjp-1.5.H_16" type="41"/>
	<vehicle id="V23-F-mjp-1.5.H_17" type="41"/>
	<vehicle id="V23-F-mjp-1.5.H_18" type="41"/>
	<vehicle id="V23-F-mjp-1.6.H_0" type="41"/>
	<vehicle id="V23-F-mjp-1.6.H_1" type="41"/>
	<vehicle id="V23-F-mjp-1.6.H_2" type="41"/>
	<vehicle id="V23-F-mjp-1.6.H_3" type="41"/>
	<vehicle id="V23-F-mjp-1.6.H_4" type="41"/>
	<vehicle id="V23-F-mjp-1.6.H_5" type="41"/>
	<vehicle id="V23-F-mjp-1.6.H_6" type="41"/>
	<vehicle id="V23-F-mjp-1.6.H_7" type="41"/>
	<vehicle id="V23-F-mjp-1.6.H_8" type="41"/>
	<vehicle id="V23-F-mjp-1.6.H_9" type="41"/>
	<vehicle id="V23-F-mjp-1.6.H_10" type="41"/>
	<vehicle id="V23-F-mjp-1.6.H_11" type="41"/>
	<vehicle id="V23-F-mjp-1.6.H_12" type="41"/>
	<vehicle id="V23-F-mjp-1.6.H_13" type="41"/>
	<vehicle id="V23-F-mjp-1.6.H_14" type="41"/>
	<vehicle id="V23-F-mjp-1.6.H_15" type="41"/>
	<vehicle id="V23-F-mjp-1.6.H_16" type="41"/>
	<vehicle id="V23-F-mjp-1.6.H_17" type="41"/>
	<vehicle id="V23-F-mjp-1.7.H_0" type="41"/>
	<vehicle id="V23-F-mjp-1.7.H_1" type="41"/>
	<vehicle id="V23-F-mjp-1.7.H_2" type="41"/>
	<vehicle id="V23-F-mjp-1.7.H_3" type="41"/>
	<vehicle id="V23-F-mjp-1.7.H_4" type="41"/>
	<vehicle id="V23-F-mjp-1.7.H_5" type="41"/>
	<vehicle id="V23-F-mjp-1.7.H_6" type="41"/>
	<vehicle id="V23-F-mjp-1.8.H_0" type="41"/>
	<vehicle id="V23-F-mjp-1.8.H_1" type="41"/>
	<vehicle id="V23-F-mjp-1.8.H_2" type="41"/>
	<vehicle id="V23-F-mjp-1.8.H_3" type="41"/>
	<vehicle id="V23-F-mjp-1.8.H_4" type="41"/>
	<vehicle id="V23-F-mjp-1.8.H_5" type="41"/>
	<vehicle id="V23-F-mjp-1.8.H_6" type="41"/>
	<vehicle id="V23-F-mjp-1.9.H_0" type="41"/>
	<vehicle id="V23-F-mjp-1.9.H_1" type="41"/>
	<vehicle id="V23-F-mjp-1.9.H_2" type="41"/>
	<vehicle id="V23-F-mjp-1.9.H_3" type="41"/>
	<vehicle id="V23-F-mjp-1.9.H_4" type="41"/>
	<vehicle id="V23-F-mjp-1.9.H_5" type="41"/>
	<vehicle id="V23-F-mjp-1.9.H_6" type="41"/>
	<vehicle id="V40-F-mjp-1.2.H_0" type="41"/>
	<vehicle id="V40-F-mjp-1.2.H_1" type="41"/>
	<vehicle id="V40-F-mjp-1.2.H_2" type="41"/>
	<vehicle id="V40-F-mjp-1.2.H_3" type="41"/>
	<vehicle id="V40-F-mjp-1.2.H_4" type="41"/>
	<vehicle id="V40-F-mjp-1.2.H_5" type="41"/>
	<vehicle id="V40-F-mjp-1.2.H_6" type="41"/>
	<vehicle id="V40-F-mjp-1.2.H_7" type="41"/>
	<vehicle id="V40-F-mjp-1.2.H_8" type="41"/>
	<vehicle id="V40-F-mjp-1.3.H_0" type="41"/>
	<vehicle id="V40-F-mjp-1.3.H_1" type="41"/>
	<vehicle id="V40-F-mjp-1.3.H_2" type="41"/>
	<vehicle id="V40-F-mjp-1.3.H_3" type="41"/>
	<vehicle id="V40-F-mjp-1.3.H_4" type="41"/>
	<vehicle id="V40-F-mjp-1.3.H_5" type="41"/>
	<vehicle id="V40-F-mjp-1.3.H_6" type="41"/>
	<vehicle id="V40-F-mjp-1.3.H_7" type="41"/>
	<vehicle id="V40-F-mjp-1.3.H_8" type="41"/>
	<vehicle id="V40-F-mjp-1.3.H_9" type="41"/>
	<vehicle id="V40-F-mjp-1.3.H_10" type="41"/>
	<vehicle id="V40-F-mjp-1.3.H_11" type="41"/>
	<vehicle id="V40-F-mjp-1.3.H_12" type="41"/>
	<vehicle id="V40-F-mjp-1.3.H_13" type="41"/>
	<vehicle id="V40-F-mjp-1.4.R_0" type="41"/>
	<vehicle id="V40-F-mjp-1.4.R_1" type="41"/>
	<vehicle id="V40-F-mjp-1.4.R_2" type="41"/>
	<vehicle id="V40-F-mjp-1.4.R_3" type="41"/>
	<vehicle id="V40-F-mjp-1.4.R_4" type="41"/>
	<vehicle id="V40-F-mjp-1.4.R_5" type="41"/>
	<vehicle id="V40-F-mjp-1.4.R_6" type="41"/>
	<vehicle id="V40-F-mjp-1.4.R_7" type="41"/>
	<vehicle id="V40-F-mjp-1.4.R_8" type="41"/>
	<vehicle id="V40-F-mjp-1.4.R_9" type="41"/>
	<vehicle id="V40-F-mjp-1.5.R_0" type="41"/>
	<vehicle id="V40-F-mjp-1.5.R_1" type="41"/>
	<vehicle id="V40-F-mjp-1.5.R_2" type="41"/>
	<vehicle id="V40-F-mjp-1.5.R_3" type="41"/>
	<vehicle id="V40-F-mjp-1.5.R_4" type="41"/>
	<vehicle id="V40-F-mjp-1.5.R_5" type="41"/>
	<vehicle id="V40-F-mjp-1.5.R_6" type="41"/>
	<vehicle id="V40-F-mjp-1.5.R_7" type="41"/>
	<vehicle id="V40-F-mjp-1.5.R_8" type="41"/>
	<vehicle id="V40-F-mjp-1.5.R_9" type="41"/>
	<vehicle id="V40-F-mjp-1.5.R_10" type="41"/>
	<vehicle id="V40-F-mjp-1.6.R_0" type="41"/>
	<vehicle id="V40-F-mjp-1.6.R_1" type="41"/>
	<vehicle id="V40-F-mjp-1.6.R_2" type="41"/>
	<vehicle id="V40-F-mjp-1.6.R_3" type="41"/>
	<vehicle id="V40-F-mjp-1.6.R_4" type="41"/>
	<vehicle id="V40-F-mjp-1.6.R_5" type="41"/>
	<vehicle id="V40-F-mjp-1.6.R_6" type="41"/>
	<vehicle id="V40-F-mjp-1.6.R_7" type="41"/>
	<vehicle id="V40-F-mjp-1.7.R_0" type="41"/>
	<vehicle id="V40-F-mjp-1.7.R_1" type="41"/>
	<vehicle id="V40-F-mjp-1.7.R_2" type="41"/>
	<vehicle id="V40-F-mjp-1.7.R_3" type="41"/>
	<vehicle id="V40-F-mjp-1.7.R_4" type="41"/>
	<vehicle id="V40-F-mjp-1.7.R_5" type="41"/>
	<vehicle id="V40-F-mjp-1.7.R_6" type="41"/>
	<vehicle id="V40-F-mjp-1.7.R_7" type="41"/>
	<vehicle id="V40-F-mjp-1.7.R_8" type="41"/>
	<vehicle id="V40-F-mjp-1.7.R_9" type="41"/>
	<vehicle id="V45-F-mjp-1.1.H_0" type="44"/>
	<vehicle id="V45-F-mjp-1.1.H_1" type="44"/>
	<vehicle id="V45-F-mjp-1.1.H_2" type="44"/>
	<vehicle id="V45-F-mjp-1.1.H_3" type="44"/>
	<vehicle id="V45-F-mjp-1.1.H_4" type="44"/>
	<vehicle id="V45-F-mjp-1.1.H_5" type="44"/>
	<vehicle id="V45-F-mjp-1.1.H_6" type="44"/>
	<vehicle id="V45-F-mjp-1.2.R_0" type="44"/>
	<vehicle id="V45-F-mjp-1.2.R_1" type="44"/>
	<vehicle id="V45-F-mjp-1.2.R_2" type="44"/>
	<vehicle id="V45-F-mjp-1.2.R_3" type="44"/>
	<vehicle id="V45-F-mjp-1.2.R_4" type="44"/>
	<vehicle id="V45-F-mjp-1.2.R_5" type="44"/>
	<vehicle id="V45-F-mjp-1.2.R_6" type="44"/>
	<vehicle id="V45-F-mjp-1.3.R_0" type="44"/>
	<vehicle id="V45-F-mjp-1.3.R_1" type="44"/>
	<vehicle id="V45-F-mjp-1.3.R_2" type="44"/>
	<vehicle id="V45-F-mjp-1.3.R_3" type="44"/>
	<vehicle id="V45-F-mjp-1.3.R_4" type="44"/>
	<vehicle id="V45-F-mjp-1.3.R_5" type="44"/>
	<vehicle id="V45-F-mjp-1.3.R_6" type="44"/>
	<vehicle id="V45-F-mjp-1.3.R_7" type="44"/>
	<vehicle id="V48-F-mjp-1.1.H_0" type="41"/>
	<vehicle id="V48-F-mjp-1.1.H_1" type="41"/>
	<vehicle id="V48-F-mjp-1.1.H_2" type="41"/>
	<vehicle id="V48-F-mjp-1.1.H_3" type="41"/>
	<vehicle id="V48-F-mjp-1.1.H_4" type="41"/>
	<vehicle id="V48-F-mjp-1.1.H_5" type="41"/>
	<vehicle id="V48-F-mjp-1.1.H_6" type="41"/>
	<vehicle id="V48-F-mjp-1.1.H_7" type="41"/>
	<vehicle id="V48-F-mjp-1.1.H_8" type="41"/>
	<vehicle id="V48-F-mjp-1.1.H_9" type="41"/>
	<vehicle id="V48-F-mjp-1.10.R_0" type="41"/>
	<vehicle id="V48-F-mjp-1.10.R_1" type="41"/>
	<vehicle id="V48-F-mjp-1.10.R_2" type="41"/>
	<vehicle id="V48-F-mjp-1.10.R_3" type="41"/>
	<vehicle id="V48-F-mjp-1.10.R_4" type="41"/>
	<vehicle id="V48-F-mjp-1.10.R_5" type="41"/>
	<vehicle id="V48-F-mjp-1.10.R_6" type="41"/>
	<vehicle id="V48-F-mjp-1.10.R_7" type="41"/>
	<vehicle id="V48-F-mjp-1.10.R_8" type="41"/>
	<vehicle id="V48-F-mjp-1.10.R_9" type="41"/>
	<vehicle id="V48-F-mjp-1.11.R_0" type="41"/>
	<vehicle id="V48-F-mjp-1.11.R_1" type="41"/>
	<vehicle id="V48-F-mjp-1.11.R_2" type="41"/>
	<vehicle id="V48-F-mjp-1.11.R_3" type="41"/>
	<vehicle id="V48-F-mjp-1.11.R_4" type="41"/>
	<vehicle id="V48-F-mjp-1.11.R_5" type="41"/>
	<vehicle id="V48-F-mjp-1.11.R_6" type="41"/>
	<vehicle id="V48-F-mjp-1.2.H_0" type="41"/>
	<vehicle id="V48-F-mjp-1.2.H_1" type="41"/>
	<vehicle id="V48-F-mjp-1.2.H_2" type="41"/>
	<vehicle id="V48-F-mjp-1.2.H_3" type="41"/>
	<vehicle id="V48-F-mjp-1.2.H_4" type="41"/>
	<vehicle id="V48-F-mjp-1.2.H_5" type="41"/>
	<vehicle id="V48-F-mjp-1.2.H_6" type="41"/>
	<vehicle id="V48-F-mjp-1.3.H_0" type="41"/>
	<vehicle id="V48-F-mjp-1.3.H_1" type="41"/>
	<vehicle id="V48-F-mjp-1.3.H_2" type="41"/>
	<vehicle id="V48-F-mjp-1.3.H_3" type="41"/>
	<vehicle id="V48-F-mjp-1.3.H_4" type="41"/>
	<vehicle id="V48-F-mjp-1.3.H_5" type="41"/>
	<vehicle id="V48-F-mjp-1.3.H_6" type="41"/>
	<vehicle id="V48-F-mjp-1.3.H_7" type="41"/>
	<vehicle id="V48-F-mjp-1.3.H_8" type="41"/>
	<vehicle id="V48-F-mjp-1.3.H_9" type="41"/>
	<vehicle id="V48-F-mjp-1.3.H_10" type="41"/>
	<vehicle id="V48-F-mjp-1.3.H_11" type="41"/>
	<vehicle id="V48-F-mjp-1.3.H_12" type="41"/>
	<vehicle id="V48-F-mjp-1.3.H_13" type="41"/>
	<vehicle id="V48-F-mjp-1.3.H_14" type="41"/>
	<vehicle id="V48-F-mjp-1.3.H_15" type="41"/>
	<vehicle id="V48-F-mjp-1.3.H_16" type="41"/>
	<vehicle id="V48-F-mjp-1.3.H_17" type="41"/>
	<vehicle id="V48-F-mjp-1.3.H_18" type="41"/>
	<vehicle id="V48-F-mjp-1.4.H_0" type="41"/>
	<vehicle id="V48-F-mjp-1.4.H_1" type="41"/>
	<vehicle id="V48-F-mjp-1.4.H_2" type="41"/>
	<vehicle id="V48-F-mjp-1.4.H_3" type="41"/>
	<vehicle id="V48-F-mjp-1.4.H_4" type="41"/>
	<vehicle id="V48-F-mjp-1.4.H_5" type="41"/>
	<vehicle id="V48-F-mjp-1.4.H_6" type="41"/>
	<vehicle id="V48-F-mjp-1.5.H_0" type="41"/>
	<vehicle id="V48-F-mjp-1.5.H_1" type="41"/>
	<vehicle id="V48-F-mjp-1.5.H_2" type="41"/>
	<vehicle id="V48-F-mjp-1.5.H_3" type="41"/>
	<vehicle id="V48-F-mjp-1.5.H_4" type="41"/>
	<vehicle id="V48-F-mjp-1.5.H_5" type="41"/>
	<vehicle id="V48-F-mjp-1.5.H_6" type="41"/>
	<vehicle id="V48-F-mjp-1.6.R_0" type="41"/>
	<vehicle id="V48-F-mjp-1.6.R_1" type="41"/>
	<vehicle id="V48-F-mjp-1.6.R_2" type="41"/>
	<vehicle id="V48-F-mjp-1.6.R_3" type="41"/>
	<vehicle id="V48-F-mjp-1.6.R_4" type="41"/>
	<vehicle id="V48-F-mjp-1.6.R_5" type="41"/>
	<vehicle id="V48-F-mjp-1.6.R_6" type="41"/>
	<vehicle id="V48-F-mjp-1.6.R_7" type="41"/>
	<vehicle id="V48-F-mjp-1.6.R_8" type="41"/>
	<vehicle id="V48-F-mjp-1.6.R_9" type="41"/>
	<vehicle id="V48-F-mjp-1.6.R_10" type="41"/>
	<vehicle id="V48-F-mjp-1.6.R_11" type="41"/>
	<vehicle id="V48-F-mjp-1.6.R_12" type="41"/>
	<vehicle id="V48-F-mjp-1.6.R_13" type="41"/>
	<vehicle id="V48-F-mjp-1.6.R_14" type="41"/>
	<vehicle id="V48-F-mjp-1.6.R_15" type="41"/>
	<vehicle id="V48-F-mjp-1.6.R_16" type="41"/>
	<vehicle id="V48-F-mjp-1.9.R_0" type="41"/>
	<vehicle id="V48-F-mjp-1.9.R_1" type="41"/>
	<vehicle id="V48-F-mjp-1.9.R_2" type="41"/>
	<vehicle id="V48-F-mjp-1.9.R_3" type="41"/>
	<vehicle id="V48-F-mjp-1.9.R_4" type="41"/>
	<vehicle id="V48-F-mjp-1.9.R_5" type="41"/>
	<vehicle id="V48-F-mjp-1.9.R_6" type="41"/>
	<vehicle id="V51-F-mjp-1.1.H_0" type="41"/>
	<vehicle id="V51-F-mjp-1.1.H_1" type="41"/>
	<vehicle id="V51-F-mjp-1.1.H_2" type="41"/>
	<vehicle id="V51-F-mjp-1.1.H_3" type="41"/>
	<vehicle id="V51-F-mjp-1.1.H_4" type="41"/>
	<vehicle id="V51-F-mjp-1.1.H_5" type="41"/>
	<vehicle id="V51-F-mjp-1.1.H_6" type="41"/>
	<vehicle id="V51-F-mjp-1.1.H_7" type="41"/>
	<vehicle id="V51-F-mjp-1.2.R_0" type="41"/>
	<vehicle id="V51-F-mjp-1.2.R_1" type="41"/>
	<vehicle id="V51-F-mjp-1.2.R_2" type="41"/>
	<vehicle id="V51-F-mjp-1.2.R_3" type="41"/>
	<vehicle id="V51-F-mjp-1.2.R_4" type="41"/>
	<vehicle id="V51-F-mjp-1.2.R_5" type="41"/>
	<vehicle id="V51-F-mjp-1.2.R_6" type="41"/>
	<vehicle id="V51-F-mjp-1.2.R_7" type="41"/>
	<vehicle id="V51-F-mjp-1.2.R_8" type="41"/>
	<vehicle id="V51-F-mjp-1.2.R_9" type="41"/>
	<vehicle id="vsu-F-mjp-1.1.H_0" type="41"/>
	<vehicle id="vsu-F-mjp-1.1.H_1" type="41"/>
	<vehicle id="vsu-F-mjp-1.1.H_2" type="41"/>
	<vehicle id="vsu-F-mjp-1.1.H_3" type="41"/>
	<vehicle id="vsu-F-mjp-1.1.H_4" type="41"/>
	<vehicle id="vsu-F-mjp-1.1.H_5" type="41"/>
	<vehicle id="vsu-F-mjp-1.1.H_6" type="41"/>
	<vehicle id="vsu-F-mjp-1.1.H_7" type="41"/>
	<vehicle id="vsu-F-mjp-1.1.H_8" type="41"/>
	<vehicle id="vsu-F-mjp-1.1.H_9" type="41"/>
	<vehicle id="vsu-F-mjp-1.1.H_10" type="41"/>
	<vehicle id="vsu-F-mjp-1.2.R_0" type="41"/>
	<vehicle id="vsu-F-mjp-1.2.R_1" type="41"/>
	<vehicle id="vsu-F-mjp-1.2.R_2" type="41"/>
	<vehicle id="vsu-F-mjp-1.2.R_3" type="41"/>
	<vehicle id="vsu-F-mjp-1.2.R_4" type="41"/>
	<vehicle id="vsu-F-mjp-1.2.R_5" type="41"/>
	<vehicle id="vsu-F-mjp-1.2.R_6" type="41"/>
	<vehicle id="vsu-F-mjp-1.2.R_7" type="41"/>
	<vehicle id="vsu-F-mjp-1.2.R_8" type="41"/>
	<vehicle id="vsu-F-mjp-1.2.R_9" type="41"/>
	<vehicle id="vsu-F-mjp-1.2.R_10" type="41"/>
	<vehicle id="vsu-F-mjp-1.2.R_11" type="41"/>
	<vehicle id="vsu-F-mjp-1.2.R_12" type="41"/>
	<vehicle id="vsu-F-mjp-1.2.R_13" type="41"/>
</vehicleDefinitions>